156613984
  -OEChem-07172408113D

 73 77  0     1  0  0  0  0  0999 V2000
   -1.8131   -5.1687    1.4791 O   0  0  0  0  0  0  0  0  0  0  0  0
    0.7451   -2.4869    1.4620 N   0  0  2  0  0  0  0  0  0  0  0  0
    0.1870   -5.4239   -0.6591 N   0  0  0  0  0  0  0  0  0  0  0  0
    0.0275   -1.3399    1.6374 N   0  0  0  0  0  0  0  0  0  0  0  0
    6.8554    1.2583   -0.0875 N   0  0  0  0  0  0  0  0  0  0  0  0
   -2.7860    5.1040    0.9673 N   0  0  0  0  0  0  0  0  0  0  0  0
   -0.7680   -4.3142   -0.5447 C   0  0  2  0  0  0  0  0  0  0  0  0
   -1.1237   -4.0388    0.9388 C   0  0  2  0  0  0  0  0  0  0  0  0
    0.0684   -3.7156    1.8525 C   0  0  0  0  0  0  0  0  0  0  0  0
   -2.0014   -4.6683   -1.4061 C   0  0  0  0  0  0  0  0  0  0  0  0
   -3.0402   -3.5734   -1.4602 C   0  0  0  0  0  0  0  0  0  0  0  0
    2.0680   -2.4368    2.0998 C   0  0  0  0  0  0  0  0  0  0  0  0
    2.9951   -1.4837    1.3936 C   0  0  0  0  0  0  0  0  0  0  0  0
   -2.9759   -2.5995   -2.4566 C   0  0  0  0  0  0  0  0  0  0  0  0
   -4.0640   -3.5362   -0.5135 C   0  0  0  0  0  0  0  0  0  0  0  0
    3.2789   -1.6616    0.0396 C   0  0  0  0  0  0  0  0  0  0  0  0
    3.5703   -0.4229    2.0932 C   0  0  0  0  0  0  0  0  0  0  0  0
   -3.9354   -1.5884   -2.5065 C   0  0  0  0  0  0  0  0  0  0  0  0
   -5.0235   -2.5250   -0.5635 C   0  0  0  0  0  0  0  0  0  0  0  0
   -0.2813   -0.7678    0.5176 C   0  0  0  0  0  0  0  0  0  0  0  0
   -4.9591   -1.5511   -1.5599 C   0  0  0  0  0  0  0  0  0  0  0  0
    4.7128    0.2822    0.0846 C   0  0  0  0  0  0  0  0  0  0  0  0
    4.1377   -0.7786   -0.6150 C   0  0  0  0  0  0  0  0  0  0  0  0
    4.4292    0.4602    1.4387 C   0  0  0  0  0  0  0  0  0  0  0  0
   -1.0706    0.4756    0.4684 C   0  0  0  0  0  0  0  0  0  0  0  0
    5.6036    1.1981   -0.5942 C   0  0  0  0  0  0  0  0  0  0  0  0
   -1.3760    1.0593   -0.7610 C   0  0  0  0  0  0  0  0  0  0  0  0
   -1.5122    1.0688    1.6511 C   0  0  0  0  0  0  0  0  0  0  0  0
   -2.5648    2.8295    0.3747 C   0  0  0  0  0  0  0  0  0  0  0  0
   -2.1232    2.2363   -0.8079 C   0  0  0  0  0  0  0  0  0  0  0  0
   -2.2593    2.2458    1.6043 C   0  0  0  0  0  0  0  0  0  0  0  0
    5.1698    1.9417   -1.6800 C   0  0  0  0  0  0  0  0  0  0  0  0
   -3.3397    4.0502    0.3264 C   0  0  0  0  0  0  0  0  0  0  0  0
    6.0792    2.8026   -2.2843 C   0  0  0  0  0  0  0  0  0  0  0  0
    7.7115    2.1059   -0.7009 C   0  0  0  0  0  0  0  0  0  0  0  0
    7.3763    2.8921   -1.7915 C   0  0  0  0  0  0  0  0  0  0  0  0
   -4.5551    4.0975   -0.3373 C   0  0  0  0  0  0  0  0  0  0  0  0
   -5.2467    5.3037   -0.3436 C   0  0  0  0  0  0  0  0  0  0  0  0
   -3.4871    6.2595    0.9397 C   0  0  0  0  0  0  0  0  0  0  0  0
   -4.7093    6.4103    0.3048 C   0  0  0  0  0  0  0  0  0  0  0  0
   -0.2939   -3.4237   -0.9717 H   0  0  0  0  0  0  0  0  0  0  0  0
   -1.8261   -3.2005    0.9915 H   0  0  0  0  0  0  0  0  0  0  0  0
    0.7477   -4.5774    1.8504 H   0  0  0  0  0  0  0  0  0  0  0  0
   -0.2805   -3.6378    2.8919 H   0  0  0  0  0  0  0  0  0  0  0  0
   -2.4732   -5.5933   -1.0470 H   0  0  0  0  0  0  0  0  0  0  0  0
   -1.6839   -4.8920   -2.4345 H   0  0  0  0  0  0  0  0  0  0  0  0
    1.9675   -2.1782    3.1624 H   0  0  0  0  0  0  0  0  0  0  0  0
    2.5627   -3.4172    2.0666 H   0  0  0  0  0  0  0  0  0  0  0  0
    1.0732   -5.1608   -0.2305 H   0  0  0  0  0  0  0  0  0  0  0  0
    0.3945   -5.5977   -1.6420 H   0  0  0  0  0  0  0  0  0  0  0  0
   -2.0958   -4.9385    2.3805 H   0  0  0  0  0  0  0  0  0  0  0  0
   -2.1809   -2.6156   -3.1974 H   0  0  0  0  0  0  0  0  0  0  0  0
   -4.1352   -4.2927    0.2627 H   0  0  0  0  0  0  0  0  0  0  0  0
    2.8433   -2.4872   -0.5172 H   0  0  0  0  0  0  0  0  0  0  0  0
    3.3571   -0.2710    3.1479 H   0  0  0  0  0  0  0  0  0  0  0  0
   -3.8840   -0.8286   -3.2808 H   0  0  0  0  0  0  0  0  0  0  0  0
   -5.8217   -2.4968    0.1725 H   0  0  0  0  0  0  0  0  0  0  0  0
    0.0357   -1.1827   -0.4574 H   0  0  0  0  0  0  0  0  0  0  0  0
   -5.7055   -0.7630   -1.5982 H   0  0  0  0  0  0  0  0  0  0  0  0
    4.3506   -0.9389   -1.6693 H   0  0  0  0  0  0  0  0  0  0  0  0
    4.8648    1.2836    1.9998 H   0  0  0  0  0  0  0  0  0  0  0  0
   -1.0383    0.6081   -1.6904 H   0  0  0  0  0  0  0  0  0  0  0  0
   -1.2897    0.6355    2.6225 H   0  0  0  0  0  0  0  0  0  0  0  0
   -2.3462    2.6775   -1.7765 H   0  0  0  0  0  0  0  0  0  0  0  0
   -2.5981    2.6917    2.5365 H   0  0  0  0  0  0  0  0  0  0  0  0
    4.1551    1.8731   -2.0590 H   0  0  0  0  0  0  0  0  0  0  0  0
    5.7775    3.4034   -3.1370 H   0  0  0  0  0  0  0  0  0  0  0  0
    8.7103    2.1389   -0.2785 H   0  0  0  0  0  0  0  0  0  0  0  0
    8.1019    3.5564   -2.2466 H   0  0  0  0  0  0  0  0  0  0  0  0
   -4.9741    3.2306   -0.8382 H   0  0  0  0  0  0  0  0  0  0  0  0
   -6.2032    5.3812   -0.8517 H   0  0  0  0  0  0  0  0  0  0  0  0
   -3.0251    7.0921    1.4599 H   0  0  0  0  0  0  0  0  0  0  0  0
   -5.2309    7.3604    0.3131 H   0  0  0  0  0  0  0  0  0  0  0  0
  1  8  1  0  0  0  0
  1 51  1  0  0  0  0
  2  4  1  0  0  0  0
  2  9  1  0  0  0  0
  2 12  1  0  0  0  0
  3  7  1  0  0  0  0
  3 49  1  0  0  0  0
  3 50  1  0  0  0  0
  4 20  2  0  0  0  0
  5 26  1  0  0  0  0
  5 35  2  0  0  0  0
  6 33  1  0  0  0  0
  6 39  2  0  0  0  0
  7  8  1  0  0  0  0
  7 10  1  0  0  0  0
  7 41  1  0  0  0  0
  8  9  1  0  0  0  0
  8 42  1  0  0  0  0
  9 43  1  0  0  0  0
  9 44  1  0  0  0  0
 10 11  1  0  0  0  0
 10 45  1  0  0  0  0
 10 46  1  0  0  0  0
 11 14  2  0  0  0  0
 11 15  1  0  0  0  0
 12 13  1  0  0  0  0
 12 47  1  0  0  0  0
 12 48  1  0  0  0  0
 13 16  2  0  0  0  0
 13 17  1  0  0  0  0
 14 18  1  0  0  0  0
 14 52  1  0  0  0  0
 15 19  2  0  0  0  0
 15 53  1  0  0  0  0
 16 23  1  0  0  0  0
 16 54  1  0  0  0  0
 17 24  2  0  0  0  0
 17 55  1  0  0  0  0
 18 21  2  0  0  0  0
 18 56  1  0  0  0  0
 19 21  1  0  0  0  0
 19 57  1  0  0  0  0
 20 25  1  0  0  0  0
 20 58  1  0  0  0  0
 21 59  1  0  0  0  0
 22 23  2  0  0  0  0
 22 24  1  0  0  0  0
 22 26  1  0  0  0  0
 23 60  1  0  0  0  0
 24 61  1  0  0  0  0
 25 27  2  0  0  0  0
 25 28  1  0  0  0  0
 26 32  2  0  0  0  0
 27 30  1  0  0  0  0
 27 62  1  0  0  0  0
 28 31  2  0  0  0  0
 28 63  1  0  0  0  0
 29 30  2  0  0  0  0
 29 31  1  0  0  0  0
 29 33  1  0  0  0  0
 30 64  1  0  0  0  0
 31 65  1  0  0  0  0
 32 34  1  0  0  0  0
 32 66  1  0  0  0  0
 33 37  2  0  0  0  0
 34 36  2  0  0  0  0
 34 67  1  0  0  0  0
 35 36  1  0  0  0  0
 35 68  1  0  0  0  0
 36 69  1  0  0  0  0
 37 38  1  0  0  0  0
 37 70  1  0  0  0  0
 38 40  2  0  0  0  0
 38 71  1  0  0  0  0
 39 40  1  0  0  0  0
 39 72  1  0  0  0  0
 40 73  1  0  0  0  0
M  END
> <PUBCHEM_COMPOUND_CID>
156613984

> <PUBCHEM_CONFORMER_RMSD>
1.2

> <PUBCHEM_CONFORMER_DIVERSEORDER>
1
77
4
85
49
73
66
83
76
21
65
61
92
87
108
22
96
54
81
67
2
89
40
33
68
28
36
23
55
46
37
20
58
94
109
45
14
99
53
9
51
71
59
42
47
95
56
41
90
6
111
17
25
12
80
105
7
48
27
104
38
16
86
106
34
18
15
3
70
79
43
75
31
60
103
57
30
91
44
84
107
52
100
97
88
13
32
93
5
82
50
78
110
19
26
62
98
72
69
63
24
35
10
11
8
101
102
64
74
39
29

> <PUBCHEM_MMFF94_PARTIAL_CHARGES>
63
1 -0.68
10 0.14
11 -0.14
12 0.41
13 -0.14
14 -0.15
15 -0.15
16 -0.15
17 -0.15
18 -0.15
19 -0.15
2 -0.49
20 0.3
21 -0.15
23 -0.15
24 -0.15
25 0.09
26 0.31
27 -0.15
28 -0.15
3 -0.99
30 -0.15
31 -0.15
32 -0.15
33 0.31
34 -0.15
35 0.16
36 -0.15
37 -0.15
38 -0.15
39 0.16
4 -0.5
40 -0.15
49 0.36
5 -0.62
50 0.36
51 0.4
52 0.15
53 0.15
54 0.15
55 0.15
56 0.15
57 0.15
58 0.06
59 0.15
6 -0.62
60 0.15
61 0.15
62 0.15
63 0.15
64 0.15
65 0.15
66 0.15
67 0.15
68 0.15
69 0.15
7 0.27
70 0.15
71 0.15
72 0.15
73 0.15
8 0.28
9 0.27

> <PUBCHEM_EFFECTIVE_ROTOR_COUNT>
11

> <PUBCHEM_PHARMACOPHORE_FEATURES>
12
1 1 acceptor
1 1 donor
1 3 cation
1 3 donor
1 4 acceptor
1 5 acceptor
1 6 acceptor
6 11 14 15 18 19 21 rings
6 13 16 17 22 23 24 rings
6 25 27 28 29 30 31 rings
6 5 26 32 34 35 36 rings
6 6 33 37 38 39 40 rings

> <PUBCHEM_HEAVY_ATOM_COUNT>
40

> <PUBCHEM_ATOM_DEF_STEREO_COUNT>
2

> <PUBCHEM_ATOM_UDEF_STEREO_COUNT>
0

> <PUBCHEM_BOND_DEF_STEREO_COUNT>
1

> <PUBCHEM_BOND_UDEF_STEREO_COUNT>
0

> <PUBCHEM_ISOTOPIC_ATOM_COUNT>
0

> <PUBCHEM_COMPONENT_COUNT>
1

> <PUBCHEM_CACTVS_TAUTO_COUNT>
-1

> <PUBCHEM_CONFORMER_ID>
0955BD6000000001

> <PUBCHEM_MMFF94_ENERGY>
115.6658

> <PUBCHEM_FEATURE_SELFOVERLAP>
60.9

> <PUBCHEM_SHAPE_FINGERPRINT>
11477941 20 17764887071227476228
11505856 67 18410298037924952552
11621639 254 18191600854861186340
12522641 68 18341337704329136902
12788726 201 18339349863956769386
1361 2 17118311102170515859
14004853 49 18194701284535488473
14114206 34 18127101243638509671
15198563 99 18197222661644157958
15274700 147 17969518162887319684
15439362 3 18266745676260660138
15448158 71 18335146337147141064
15664458 57 18129393734083062526
15705408 1 17548391053763736173
16067690 210 18198058281959814182
23576562 1 17908145373850771799
25223398 141 18059841867068383898
27425 322 18268430123009508052
4173938 77 17329984699534825167
4353968 344 18269003154248068566
5171179 24 17328582237698998535
563151 74 14563347658953279738
6036956 94 18336820902083275885
6058803 2 18190442892574937322
6201320 215 18266171920196376912
6898599 12 18339922615368653021

> <PUBCHEM_SHAPE_MULTIPOLES>
792.41
15.41
10.54
2.27
28.91
6.53
-0.26
19.17
-8.42
-19.64
0.45
0.84
-1.18
-6.27

> <PUBCHEM_SHAPE_SELFOVERLAP>
1721.085

> <PUBCHEM_SHAPE_VOLUME>
428.2

> <PUBCHEM_COORDINATE_TYPE>
2
5
10

$$$$
171380687
  -OEChem-07172408112D

 34 35  0     1  0  0  0  0  0999 V2000
    0.0000    0.0000    0.0000 N   0  0  0  0  0  0  0  0  0  0  0  0
    0.0000    0.0000    0.0000 N   0  0  0  0  0  0  0  0  0  0  0  0
    0.0000    0.0000    0.0000 N   0  0  0  0  0  0  0  0  0  0  0  0
    0.0000    0.0000    0.0000 C   0  0  3  0  0  0  0  0  0  0  0  0
    0.0000    0.0000    0.0000 C   0  0  0  0  0  0  0  0  0  0  0  0
    0.0000    0.0000    0.0000 C   0  0  0  0  0  0  0  0  0  0  0  0
    0.0000    0.0000    0.0000 C   0  0  0  0  0  0  0  0  0  0  0  0
    0.0000    0.0000    0.0000 C   0  0  0  0  0  0  0  0  0  0  0  0
    0.0000    0.0000    0.0000 C   0  0  0  0  0  0  0  0  0  0  0  0
    0.0000    0.0000    0.0000 C   0  0  0  0  0  0  0  0  0  0  0  0
    0.0000    0.0000    0.0000 C   0  0  0  0  0  0  0  0  0  0  0  0
    0.0000    0.0000    0.0000 C   0  0  0  0  0  0  0  0  0  0  0  0
    0.0000    0.0000    0.0000 C   0  0  0  0  0  0  0  0  0  0  0  0
    0.0000    0.0000    0.0000 C   0  0  0  0  0  0  0  0  0  0  0  0
    0.0000    0.0000    0.0000 C   0  0  0  0  0  0  0  0  0  0  0  0
    0.0000    0.0000    0.0000 H   0  0  0  0  0  0  0  0  0  0  0  0
    0.0000    0.0000    0.0000 H   0  0  0  0  0  0  0  0  0  0  0  0
    0.0000    0.0000    0.0000 H   0  0  0  0  0  0  0  0  0  0  0  0
    0.0000    0.0000    0.0000 H   0  0  0  0  0  0  0  0  0  0  0  0
    0.0000    0.0000    0.0000 H   0  0  0  0  0  0  0  0  0  0  0  0
    0.0000    0.0000    0.0000 H   0  0  0  0  0  0  0  0  0  0  0  0
    0.0000    0.0000    0.0000 H   0  0  0  0  0  0  0  0  0  0  0  0
    0.0000    0.0000    0.0000 H   0  0  0  0  0  0  0  0  0  0  0  0
    0.0000    0.0000    0.0000 H   0  0  0  0  0  0  0  0  0  0  0  0
    0.0000    0.0000    0.0000 H   0  0  0  0  0  0  0  0  0  0  0  0
    0.0000    0.0000    0.0000 H   0  0  0  0  0  0  0  0  0  0  0  0
    0.0000    0.0000    0.0000 H   0  0  0  0  0  0  0  0  0  0  0  0
    0.0000    0.0000    0.0000 H   0  0  0  0  0  0  0  0  0  0  0  0
    0.0000    0.0000    0.0000 H   0  0  0  0  0  0  0  0  0  0  0  0
    0.0000    0.0000    0.0000 H   0  0  0  0  0  0  0  0  0  0  0  0
    0.0000    0.0000    0.0000 H   0  0  0  0  0  0  0  0  0  0  0  0
    0.0000    0.0000    0.0000 H   0  0  0  0  0  0  0  0  0  0  0  0
    0.0000    0.0000    0.0000 H   0  0  0  0  0  0  0  0  0  0  0  0
    0.0000    0.0000    0.0000 H   0  0  0  0  0  0  0  0  0  0  0  0
  1  4  1  0  0  0  0
  1  8  1  0  0  0  0
  1 25  1  0  0  0  0
  2  3  1  0  0  0  0
  2 15  1  0  0  0  0
  2 32  1  0  0  0  0
  3 33  1  0  0  0  0
  3 34  1  0  0  0  0
  4  5  1  0  0  0  0
  4  9  1  0  0  0  0
  4 16  1  0  0  0  0
  5  6  1  0  0  0  0
  5 17  1  0  0  0  0
  5 18  1  0  0  0  0
  6  7  1  0  0  0  0
  6 19  1  0  0  0  0
  6 20  1  0  0  0  0
  7  8  1  0  0  0  0
  7 21  1  0  0  0  0
  7 22  1  0  0  0  0
  8 23  1  0  0  0  0
  8 24  1  0  0  0  0
  9 10  2  0  0  0  0
  9 11  1  0  0  0  0
 10 13  1  0  0  0  0
 10 26  1  0  0  0  0
 11 14  2  0  0  0  0
 11 27  1  0  0  0  0
 12 13  2  0  0  0  0
 12 14  1  0  0  0  0
 12 15  1  0  0  0  0
 13 28  1  0  0  0  0
 14 29  1  0  0  0  0
 15 30  1  0  0  0  0
 15 31  1  0  0  0  0
M  END
> <PUBCHEM_COMPOUND_CID>
171380687

> <PUBCHEM_CONFORMER_RMSD>
0.6

> <PUBCHEM_CONFORMER_DIVERSEORDER>
1
34
38
33
40
11
9
16
8
35
2
31
18
32
4
23
25
7
27
29
14
37
6
10
5
36
19
22
13
3
30
28
20
12
24
21
39
15
17
26

> <PUBCHEM_MMFF94_PARTIAL_CHARGES>
20
1 -0.9
10 -0.15
11 -0.15
12 -0.14
13 -0.15
14 -0.15
15 0.41
2 -0.63
25 0.36
26 0.15
27 0.15
28 0.15
29 0.15
3 -0.72
32 0.36
33 0.36
34 0.36
4 0.41
8 0.27
9 -0.14

> <PUBCHEM_EFFECTIVE_ROTOR_COUNT>
4.2

> <PUBCHEM_PHARMACOPHORE_FEATURES>
6
1 1 cation
1 1 donor
1 2 donor
1 3 donor
6 1 4 5 6 7 8 rings
6 9 10 11 12 13 14 rings

> <PUBCHEM_HEAVY_ATOM_COUNT>
15

> <PUBCHEM_ATOM_DEF_STEREO_COUNT>
0

> <PUBCHEM_ATOM_UDEF_STEREO_COUNT>
1

> <PUBCHEM_BOND_DEF_STEREO_COUNT>
0

> <PUBCHEM_BOND_UDEF_STEREO_COUNT>
0

> <PUBCHEM_ISOTOPIC_ATOM_COUNT>
0

> <PUBCHEM_COMPONENT_COUNT>
1

> <PUBCHEM_CACTVS_TAUTO_COUNT>
-1

$$$$
10761158
  -OEChem-07172408113D

 53 55  0     1  0  0  0  0  0999 V2000
   -2.1769   -0.5041    2.5848 O   0  0  0  0  0  0  0  0  0  0  0  0
   -1.0544    1.7592   -0.1292 N   0  0  2  0  0  0  0  0  0  0  0  0
   -1.1845   -1.7359    0.1305 N   0  0  0  0  0  0  0  0  0  0  0  0
   -2.2410    2.5675   -0.1384 N   0  0  0  0  0  0  0  0  0  0  0  0
    5.0997   -1.2557    0.7967 N   0  0  0  0  0  0  0  0  0  0  0  0
   -2.3869   -0.8948    0.1987 C   0  0  2  0  0  0  0  0  0  0  0  0
   -2.2399    0.1604    1.3224 C   0  0  2  0  0  0  0  0  0  0  0  0
   -0.9995    1.0486    1.1468 C   0  0  0  0  0  0  0  0  0  0  0  0
   -3.6163   -1.8132    0.3777 C   0  0  0  0  0  0  0  0  0  0  0  0
    0.1114    2.6261   -0.2938 C   0  0  0  0  0  0  0  0  0  0  0  0
   -4.9116   -1.1908   -0.0858 C   0  0  0  0  0  0  0  0  0  0  0  0
    1.3967    1.8506   -0.2656 C   0  0  0  0  0  0  0  0  0  0  0  0
   -5.6715   -0.4571    0.8113 C   0  0  0  0  0  0  0  0  0  0  0  0
   -5.3165   -1.3643   -1.3996 C   0  0  0  0  0  0  0  0  0  0  0  0
    1.5030    0.6687   -0.9893 C   0  0  0  0  0  0  0  0  0  0  0  0
    2.4676    2.3225    0.4843 C   0  0  0  0  0  0  0  0  0  0  0  0
   -6.8680    0.1180    0.3832 C   0  0  0  0  0  0  0  0  0  0  0  0
   -6.5131   -0.7890   -1.8277 C   0  0  0  0  0  0  0  0  0  0  0  0
    3.7763    0.4148   -0.2124 C   0  0  0  0  0  0  0  0  0  0  0  0
    2.6970   -0.0519   -0.9623 C   0  0  0  0  0  0  0  0  0  0  0  0
    3.6617    1.6020    0.5111 C   0  0  0  0  0  0  0  0  0  0  0  0
   -7.2887   -0.0478   -0.9362 C   0  0  0  0  0  0  0  0  0  0  0  0
    5.0154   -0.3320   -0.1848 C   0  0  0  0  0  0  0  0  0  0  0  0
    6.0126   -0.0866   -1.1124 C   0  0  0  0  0  0  0  0  0  0  0  0
    7.1771   -0.8416   -1.0271 C   0  0  0  0  0  0  0  0  0  0  0  0
    6.2463   -1.9700    0.8483 C   0  0  0  0  0  0  0  0  0  0  0  0
    7.3041   -1.8034   -0.0310 C   0  0  0  0  0  0  0  0  0  0  0  0
   -2.4758   -0.3904   -0.7709 H   0  0  0  0  0  0  0  0  0  0  0  0
   -3.1375    0.7868    1.3616 H   0  0  0  0  0  0  0  0  0  0  0  0
   -0.1039    0.4291    1.2643 H   0  0  0  0  0  0  0  0  0  0  0  0
   -0.9569    1.7519    1.9924 H   0  0  0  0  0  0  0  0  0  0  0  0
   -3.4718   -2.7306   -0.2125 H   0  0  0  0  0  0  0  0  0  0  0  0
   -3.7182   -2.1730    1.4086 H   0  0  0  0  0  0  0  0  0  0  0  0
    0.0621    3.1418   -1.2626 H   0  0  0  0  0  0  0  0  0  0  0  0
    0.1281    3.4079    0.4790 H   0  0  0  0  0  0  0  0  0  0  0  0
   -0.3731   -1.1772   -0.1205 H   0  0  0  0  0  0  0  0  0  0  0  0
   -0.9903   -2.1312    1.0497 H   0  0  0  0  0  0  0  0  0  0  0  0
   -3.0815   -0.7524    2.8383 H   0  0  0  0  0  0  0  0  0  0  0  0
   -5.3566   -0.3259    1.8423 H   0  0  0  0  0  0  0  0  0  0  0  0
   -4.7184   -1.9369   -2.1027 H   0  0  0  0  0  0  0  0  0  0  0  0
   -2.3325    3.0273   -1.0433 H   0  0  0  0  0  0  0  0  0  0  0  0
   -2.1739    3.3085    0.5587 H   0  0  0  0  0  0  0  0  0  0  0  0
    0.6829    0.2997   -1.5988 H   0  0  0  0  0  0  0  0  0  0  0  0
    2.3922    3.2459    1.0516 H   0  0  0  0  0  0  0  0  0  0  0  0
   -7.4726    0.6941    1.0776 H   0  0  0  0  0  0  0  0  0  0  0  0
   -6.8404   -0.9174   -2.8554 H   0  0  0  0  0  0  0  0  0  0  0  0
    2.7714   -0.9732   -1.5352 H   0  0  0  0  0  0  0  0  0  0  0  0
    4.4937    1.9792    1.1011 H   0  0  0  0  0  0  0  0  0  0  0  0
   -8.2204    0.4000   -1.2695 H   0  0  0  0  0  0  0  0  0  0  0  0
    5.9060    0.6658   -1.8871 H   0  0  0  0  0  0  0  0  0  0  0  0
    7.9842   -0.6808   -1.7355 H   0  0  0  0  0  0  0  0  0  0  0  0
    6.2956   -2.7070    1.6430 H   0  0  0  0  0  0  0  0  0  0  0  0
    8.2027   -2.4035    0.0544 H   0  0  0  0  0  0  0  0  0  0  0  0
  1  7  1  0  0  0  0
  1 38  1  0  0  0  0
  2  4  1  0  0  0  0
  2  8  1  0  0  0  0
  2 10  1  0  0  0  0
  3  6  1  0  0  0  0
  3 36  1  0  0  0  0
  3 37  1  0  0  0  0
  4 41  1  0  0  0  0
  4 42  1  0  0  0  0
  5 23  1  0  0  0  0
  5 26  2  0  0  0  0
  6  7  1  0  0  0  0
  6  9  1  0  0  0  0
  6 28  1  0  0  0  0
  7  8  1  0  0  0  0
  7 29  1  0  0  0  0
  8 30  1  0  0  0  0
  8 31  1  0  0  0  0
  9 11  1  0  0  0  0
  9 32  1  0  0  0  0
  9 33  1  0  0  0  0
 10 12  1  0  0  0  0
 10 34  1  0  0  0  0
 10 35  1  0  0  0  0
 11 13  2  0  0  0  0
 11 14  1  0  0  0  0
 12 15  2  0  0  0  0
 12 16  1  0  0  0  0
 13 17  1  0  0  0  0
 13 39  1  0  0  0  0
 14 18  2  0  0  0  0
 14 40  1  0  0  0  0
 15 20  1  0  0  0  0
 15 43  1  0  0  0  0
 16 21  2  0  0  0  0
 16 44  1  0  0  0  0
 17 22  2  0  0  0  0
 17 45  1  0  0  0  0
 18 22  1  0  0  0  0
 18 46  1  0  0  0  0
 19 20  2  0  0  0  0
 19 21  1  0  0  0  0
 19 23  1  0  0  0  0
 20 47  1  0  0  0  0
 21 48  1  0  0  0  0
 22 49  1  0  0  0  0
 23 24  2  0  0  0  0
 24 25  1  0  0  0  0
 24 50  1  0  0  0  0
 25 27  2  0  0  0  0
 25 51  1  0  0  0  0
 26 27  1  0  0  0  0
 26 52  1  0  0  0  0
 27 53  1  0  0  0  0
M  END
> <PUBCHEM_COMPOUND_CID>
10761158

> <PUBCHEM_CONFORMER_RMSD>
1

> <PUBCHEM_CONFORMER_DIVERSEORDER>
10
101
37
63
50
30
113
53
4
98
67
60
5
112
80
74
29
9
25
17
26
65
47
78
41
106
27
87
94
73
49
100
38
92
36
32
59
6
88
82
72
12
90
93
7
68
57
76
109
86
18
70
62
1
102
48
108
33
2
66
14
105
43
46
44
64
11
99
8
34
84
39
28
103
97
45
23
55
71
75
20
19
110
61
51
22
15
24
42
69
107
83
54
89
31
95
91
77
104
52
3
58
96
81
56
111
79
16
85
35
13
40
21

> <PUBCHEM_MMFF94_PARTIAL_CHARGES>
44
1 -0.68
10 0.41
11 -0.14
12 -0.14
13 -0.15
14 -0.15
15 -0.15
16 -0.15
17 -0.15
18 -0.15
2 -0.54
20 -0.15
21 -0.15
22 -0.15
23 0.31
24 -0.15
25 -0.15
26 0.16
27 -0.15
3 -0.99
36 0.36
37 0.36
38 0.4
39 0.15
4 -0.72
40 0.15
41 0.36
42 0.36
43 0.15
44 0.15
45 0.15
46 0.15
47 0.15
48 0.15
49 0.15
5 -0.62
50 0.15
51 0.15
52 0.15
53 0.15
6 0.27
7 0.28
8 0.27
9 0.14

> <PUBCHEM_EFFECTIVE_ROTOR_COUNT>
8

> <PUBCHEM_PHARMACOPHORE_FEATURES>
9
1 1 acceptor
1 1 donor
1 3 cation
1 3 donor
1 4 donor
1 5 acceptor
6 11 13 14 17 18 22 rings
6 12 15 16 19 20 21 rings
6 5 23 24 25 26 27 rings

> <PUBCHEM_HEAVY_ATOM_COUNT>
27

> <PUBCHEM_ATOM_DEF_STEREO_COUNT>
2

> <PUBCHEM_ATOM_UDEF_STEREO_COUNT>
0

> <PUBCHEM_BOND_DEF_STEREO_COUNT>
0

> <PUBCHEM_BOND_UDEF_STEREO_COUNT>
0

> <PUBCHEM_ISOTOPIC_ATOM_COUNT>
0

> <PUBCHEM_COMPONENT_COUNT>
1

> <PUBCHEM_CACTVS_TAUTO_COUNT>
1

> <PUBCHEM_CONFORMER_ID>
00A433C60000000A

> <PUBCHEM_MMFF94_ENERGY>
77.6036

> <PUBCHEM_FEATURE_SELFOVERLAP>
45.673

> <PUBCHEM_SHAPE_FINGERPRINT>
10 15 12463568487176394886
10483366 6 18334569119449310261
10622 236 17699835517214736311
10670039 82 17023175003999927853
11297750 10 18411127035496665848
11578821 258 7924184121096585286
117089 54 18054800481970700454
11724838 91 11095878267950794441
11796584 16 17168142403327786624
12107698 1 18341894086745091548
12166972 35 18131351933736781808
12498461 61 18266455404763926226
12592606 108 18410291441498588847
12730499 353 8718558224187845036
12760667 363 18412544310315603273
12788726 201 14924209517597335084
12895836 83 14129341822791858409
13533116 47 18272367624562281552
13885169 86 9799396846094787914
13914758 101 18413108334089905003
14068700 675 18202283601934675856
14117953 113 18201441363300939143
14216079 64 18412825772175453086
14251752 14 17821443547782224749
14257110 125 9511463320907325064
14856354 85 15068345636167207715
14930077 153 16443350870858839125
14931854 50 17821732694008895850
15052358 14 18186512225037258751
15183329 4 18260263049533248843
15188451 53 17489869332326085018
15444296 9 18340489963832381229
15519825 34 15697419122532321183
15927050 60 17762060938852899872
16126227 98 8214134166315412678
16628084 112 17605547743714432667
20028762 73 17847063289939126222
20511986 3 17561073752933639301
21315764 119 17022904544839136898
21365058 27 13045943495657467665
21458453 9 11023528238628204935
21623969 137 11384118548318352131
22224240 67 11743839162023600597
23198884 109 15285357318959936559
23522609 53 18124068747425004488
23559900 14 18263645232793770369
23929065 36 16702026318906148241
3004659 81 18113616807054390868
3459 83 18411698829351206113
3729539 64 17749661905525564331
4098825 35 16226058828588606391
4339292 15 18339082580781119854
439807 62 18114181904797415234
444769 64 18411426090438111825
504579 68 17822309980789608806
5718773 13 18342173362782988270
57307002 182 14764053606482514848
5758199 1 7997973483609779061
59755656 215 18334294245072994742
6138700 20 18408604751742838307
6608658 132 14779817214174022693
9689198 14 13551469237908921719

> <PUBCHEM_SHAPE_MULTIPOLES>
529.85
21.24
2.43
1.42
1.03
1.12
0.24
-13.14
-4.97
1.45
0.11
-1.19
-0.29
-0.71

> <PUBCHEM_SHAPE_SELFOVERLAP>
1128.91

> <PUBCHEM_SHAPE_VOLUME>
294.5

> <PUBCHEM_COORDINATE_TYPE>
2
5
10

$$$$
71315700
  -OEChem-07172408113D

 53 55  0     1  0  0  0  0  0999 V2000
    2.7419   -0.6449    2.5516 O   0  0  0  0  0  0  0  0  0  0  0  0
    1.1609   -2.1635   -0.4389 N   0  0  2  0  0  0  0  0  0  0  0  0
    0.6944    0.9157    1.1742 N   0  0  0  0  0  0  0  0  0  0  0  0
    2.2339   -2.9378   -0.9963 N   0  0  0  0  0  0  0  0  0  0  0  0
   -5.8561   -0.0566   -0.2998 N   0  0  0  0  0  0  0  0  0  0  0  0
    1.9759    0.5284    0.5698 C   0  0  2  0  0  0  0  0  0  0  0  0
    2.4625   -0.8172    1.1618 C   0  0  2  0  0  0  0  0  0  0  0  0
    1.4435   -1.9515    0.9793 C   0  0  0  0  0  0  0  0  0  0  0  0
    2.9804    1.6848    0.7705 C   0  0  0  0  0  0  0  0  0  0  0  0
    4.3208    1.4446    0.1184 C   0  0  0  0  0  0  0  0  0  0  0  0
   -0.0933   -2.8935   -0.6173 C   0  0  0  0  0  0  0  0  0  0  0  0
   -1.2910   -1.9906   -0.4860 C   0  0  0  0  0  0  0  0  0  0  0  0
    4.5406    1.8563   -1.1960 C   0  0  0  0  0  0  0  0  0  0  0  0
    5.3392    0.8104    0.8300 C   0  0  0  0  0  0  0  0  0  0  0  0
   -1.4327   -0.8922   -1.3341 C   0  0  0  0  0  0  0  0  0  0  0  0
   -2.2590   -2.2528    0.4834 C   0  0  0  0  0  0  0  0  0  0  0  0
    5.7785    1.6338   -1.7990 C   0  0  0  0  0  0  0  0  0  0  0  0
    6.5773    0.5879    0.2272 C   0  0  0  0  0  0  0  0  0  0  0  0
   -3.5105   -0.3182   -0.2432 C   0  0  0  0  0  0  0  0  0  0  0  0
   -2.5424   -0.0560   -1.2126 C   0  0  0  0  0  0  0  0  0  0  0  0
   -3.3687   -1.4165    0.6049 C   0  0  0  0  0  0  0  0  0  0  0  0
    6.7969    0.9996   -1.0873 C   0  0  0  0  0  0  0  0  0  0  0  0
   -4.6617    0.5496   -0.1169 C   0  0  0  0  0  0  0  0  0  0  0  0
   -4.5112    1.8966    0.1706 C   0  0  0  0  0  0  0  0  0  0  0  0
   -5.6608    2.6714    0.2776 C   0  0  0  0  0  0  0  0  0  0  0  0
   -6.9511    0.7284   -0.1882 C   0  0  0  0  0  0  0  0  0  0  0  0
   -6.9080    2.0838    0.0962 C   0  0  0  0  0  0  0  0  0  0  0  0
    1.8151    0.4089   -0.5089 H   0  0  0  0  0  0  0  0  0  0  0  0
    3.4069   -1.1073    0.6919 H   0  0  0  0  0  0  0  0  0  0  0  0
    1.8174   -2.8671    1.4616 H   0  0  0  0  0  0  0  0  0  0  0  0
    0.5398   -1.7066    1.5511 H   0  0  0  0  0  0  0  0  0  0  0  0
    2.5598    2.6154    0.3641 H   0  0  0  0  0  0  0  0  0  0  0  0
    3.1319    1.8845    1.8401 H   0  0  0  0  0  0  0  0  0  0  0  0
   -0.1606   -3.7500    0.0680 H   0  0  0  0  0  0  0  0  0  0  0  0
   -0.1528   -3.3207   -1.6293 H   0  0  0  0  0  0  0  0  0  0  0  0
   -0.0322    0.2545    0.9085 H   0  0  0  0  0  0  0  0  0  0  0  0
    0.3985    1.8168    0.8002 H   0  0  0  0  0  0  0  0  0  0  0  0
    3.0745   -1.4932    2.8910 H   0  0  0  0  0  0  0  0  0  0  0  0
    3.7542    2.3490   -1.7616 H   1  0  0  0  0  0  0  0  0  0  0  0
    5.1878    0.4923    1.8576 H   1  0  0  0  0  0  0  0  0  0  0  0
    2.0462   -3.1111   -1.9839 H   0  0  0  0  0  0  0  0  0  0  0  0
    3.0926   -2.3888   -0.9863 H   0  0  0  0  0  0  0  0  0  0  0  0
   -0.6895   -0.6783   -2.0978 H   0  0  0  0  0  0  0  0  0  0  0  0
   -2.1605   -3.1036    1.1522 H   0  0  0  0  0  0  0  0  0  0  0  0
    5.9494    1.9538   -2.8227 H   1  0  0  0  0  0  0  0  0  0  0  0
    7.3709    0.0959    0.7819 H   1  0  0  0  0  0  0  0  0  0  0  0
   -2.6367    0.7915   -1.8874 H   0  0  0  0  0  0  0  0  0  0  0  0
   -4.1107   -1.6346    1.3695 H   0  0  0  0  0  0  0  0  0  0  0  0
    7.7609    0.8266   -1.5567 H   1  0  0  0  0  0  0  0  0  0  0  0
   -3.5365    2.3510    0.3165 H   0  0  0  0  0  0  0  0  0  0  0  0
   -5.5853    3.7309    0.5030 H   0  0  0  0  0  0  0  0  0  0  0  0
   -7.8990    0.2223   -0.3384 H   0  0  0  0  0  0  0  0  0  0  0  0
   -7.8174    2.6682    0.1752 H   0  0  0  0  0  0  0  0  0  0  0  0
  1  7  1  0  0  0  0
  1 38  1  0  0  0  0
  2  4  1  0  0  0  0
  2  8  1  0  0  0  0
  2 11  1  0  0  0  0
  3  6  1  0  0  0  0
  3 36  1  0  0  0  0
  3 37  1  0  0  0  0
  4 41  1  0  0  0  0
  4 42  1  0  0  0  0
  5 23  1  0  0  0  0
  5 26  2  0  0  0  0
  6  7  1  0  0  0  0
  6  9  1  0  0  0  0
  6 28  1  0  0  0  0
  7  8  1  0  0  0  0
  7 29  1  0  0  0  0
  8 30  1  0  0  0  0
  8 31  1  0  0  0  0
  9 10  1  0  0  0  0
  9 32  1  0  0  0  0
  9 33  1  0  0  0  0
 10 13  2  0  0  0  0
 10 14  1  0  0  0  0
 11 12  1  0  0  0  0
 11 34  1  0  0  0  0
 11 35  1  0  0  0  0
 12 15  2  0  0  0  0
 12 16  1  0  0  0  0
 13 17  1  0  0  0  0
 13 39  1  0  0  0  0
 14 18  2  0  0  0  0
 14 40  1  0  0  0  0
 15 20  1  0  0  0  0
 15 43  1  0  0  0  0
 16 21  2  0  0  0  0
 16 44  1  0  0  0  0
 17 22  2  0  0  0  0
 17 45  1  0  0  0  0
 18 22  1  0  0  0  0
 18 46  1  0  0  0  0
 19 20  2  0  0  0  0
 19 21  1  0  0  0  0
 19 23  1  0  0  0  0
 20 47  1  0  0  0  0
 21 48  1  0  0  0  0
 22 49  1  0  0  0  0
 23 24  2  0  0  0  0
 24 25  1  0  0  0  0
 24 50  1  0  0  0  0
 25 27  2  0  0  0  0
 25 51  1  0  0  0  0
 26 27  1  0  0  0  0
 26 52  1  0  0  0  0
 27 53  1  0  0  0  0
M  ISO  5  39   2  40   2  45   2  46   2  49   2
M  END
> <PUBCHEM_COMPOUND_CID>
71315700

> <PUBCHEM_CONFORMER_RMSD>
1.2

> <PUBCHEM_CONFORMER_DIVERSEORDER>
1
74
30
103
79
56
55
68
77
96
48
67
25
42
6
19
61
28
89
92
86
31
99
81
73
102
32
15
35
36
23
10
13
4
26
104
94
91
9
80
72
8
64
63
33
5
90
37
47
20
22
76
57
46
12
100
43
82
60
84
75
11
3
18
97
71
54
87
83
27
7
50
39
49
44
52
66
101
59
65
34
29
51
45
98
24
38
16
78
85
40
2
62
14
41
69
95
93
53
17
70
58
21
88

> <PUBCHEM_MMFF94_PARTIAL_CHARGES>
44
1 -0.68
10 -0.14
11 0.41
12 -0.14
13 -0.15
14 -0.15
15 -0.15
16 -0.15
17 -0.15
18 -0.15
2 -0.54
20 -0.15
21 -0.15
22 -0.15
23 0.31
24 -0.15
25 -0.15
26 0.16
27 -0.15
3 -0.99
36 0.36
37 0.36
38 0.4
39 0.15
4 -0.72
40 0.15
41 0.36
42 0.36
43 0.15
44 0.15
45 0.15
46 0.15
47 0.15
48 0.15
49 0.15
5 -0.62
50 0.15
51 0.15
52 0.15
53 0.15
6 0.27
7 0.28
8 0.27
9 0.14

> <PUBCHEM_EFFECTIVE_ROTOR_COUNT>
8

> <PUBCHEM_PHARMACOPHORE_FEATURES>
9
1 1 acceptor
1 1 donor
1 3 cation
1 3 donor
1 4 donor
1 5 acceptor
6 10 13 14 17 18 22 rings
6 12 15 16 19 20 21 rings
6 5 23 24 25 26 27 rings

> <PUBCHEM_HEAVY_ATOM_COUNT>
27

> <PUBCHEM_ATOM_DEF_STEREO_COUNT>
2

> <PUBCHEM_ATOM_UDEF_STEREO_COUNT>
0

> <PUBCHEM_BOND_DEF_STEREO_COUNT>
0

> <PUBCHEM_BOND_UDEF_STEREO_COUNT>
0

> <PUBCHEM_ISOTOPIC_ATOM_COUNT>
5

> <PUBCHEM_COMPONENT_COUNT>
1

> <PUBCHEM_CACTVS_TAUTO_COUNT>
1

> <PUBCHEM_CONFORMER_ID>
044030F400000001

> <PUBCHEM_MMFF94_ENERGY>
71.4564

> <PUBCHEM_FEATURE_SELFOVERLAP>
45.673

> <PUBCHEM_SHAPE_FINGERPRINT>
10483366 6 18271537403589748206
10670039 82 18412541037297556724
10674148 151 18408045126859092916
1200032 147 18338807714882780513
12596602 18 17530682100717769513
12633257 1 17969201396490930235
12788726 201 17917149395024620313
13944108 23 17981611459442325769
14257110 125 18409729565059618485
14341114 328 17531239595287011066
14840074 17 17676208000038884988
14931854 50 17846214415565351801
15001296 14 18115586100899644396
15052358 14 18201450198702417542
15183329 4 16630533920614659132
15188451 53 10663827355928789228
15238133 3 18342443838247948208
15350500 16 14333136218166229564
15728490 51 8142077659679768072
15961568 22 18335139765826526949
17857418 61 10375871891848574529
18608769 82 18341897454727653299
19611394 137 17897178021026733283
20567600 70 8862938372890289284
20715895 44 18413112766992156902
21033650 10 14261360116153590435
22393880 68 17560790087064853419
23559900 14 13470391306216361535
2838139 119 18343013428226037829
3411729 13 18336828602152808295
38570 142 18186526505545210914
392239 28 15430036612251195572
4058900 60 18336552633635518307
439807 62 11167935879843941545
508180 173 17060621088343832969
513532 50 16200136691202676098
56616090 163 18413392059260635975
5718773 13 9511460013540225869
57724786 102 18261385612013476466
59682541 35 11746937625125653364
59682541 52 16200155356972159500
59755656 215 18272375252508432716
6438161 24 9079107844380905237
6523845 18 17417818395794187619
6608658 132 18200861929917442549
7808743 9 18409728491049080867

> <PUBCHEM_SHAPE_MULTIPOLES>
529.85
18.36
3.12
1.42
3.29
1.27
0.17
-16.27
-2.45
1.26
-0.36
-1.88
0.09
-1.15

> <PUBCHEM_SHAPE_SELFOVERLAP>
1126.583

> <PUBCHEM_SHAPE_VOLUME>
294.9

> <PUBCHEM_COORDINATE_TYPE>
2
5
10

$$$$
118753185
  -OEChem-07172408113D

 56 56  0     1  0  0  0  0  0999 V2000
   -3.2466    0.2832   -2.5236 O   0  0  0  0  0  0  0  0  0  0  0  0
    0.1232    0.2035    1.2962 O   0  0  0  0  0  0  0  0  0  0  0  0
    4.3484   -0.6460    0.0487 O   0  0  0  0  0  0  0  0  0  0  0  0
    3.1351   -1.1666   -1.8305 O   0  0  0  0  0  0  0  0  0  0  0  0
   -1.0524   -0.2671   -0.6438 N   0  0  0  0  0  0  0  0  0  0  0  0
    2.1959   -1.2360    0.2899 N   0  0  0  0  0  0  0  0  0  0  0  0
   -4.1832   -0.8701    0.8783 N   0  0  0  0  0  0  0  0  0  0  0  0
   -4.7571   -2.1151    1.2772 N   0  0  0  0  0  0  0  0  0  0  0  0
    0.4523   -3.0103    0.5522 C   0  0  0  0  0  0  0  0  0  0  0  0
    0.8640   -1.6500   -0.0849 C   0  0  1  0  0  0  0  0  0  0  0  0
   -2.0115    0.8023   -0.5040 C   0  0  2  0  0  0  0  0  0  0  0  0
   -0.0464   -0.4795    0.2873 C   0  0  0  0  0  0  0  0  0  0  0  0
   -3.3778    0.4037   -1.1047 C   0  0  2  0  0  0  0  0  0  0  0  0
    0.4562   -2.9113    2.0906 C   0  0  0  0  0  0  0  0  0  0  0  0
   -0.9458   -3.4700    0.0957 C   0  0  0  0  0  0  0  0  0  0  0  0
    1.4751   -4.0962    0.1515 C   0  0  0  0  0  0  0  0  0  0  0  0
   -1.4725    2.0948   -1.1494 C   0  0  0  0  0  0  0  0  0  0  0  0
   -3.9722   -0.9043   -0.5624 C   0  0  0  0  0  0  0  0  0  0  0  0
   -0.4207    2.7788   -0.3073 C   0  0  0  0  0  0  0  0  0  0  0  0
    3.2169   -1.0299   -0.6142 C   0  0  0  0  0  0  0  0  0  0  0  0
   -0.7962    3.7322    0.6390 C   0  0  0  0  0  0  0  0  0  0  0  0
    0.9257    2.4566   -0.4764 C   0  0  0  0  0  0  0  0  0  0  0  0
    0.1749    4.3636    1.4164 C   0  0  0  0  0  0  0  0  0  0  0  0
    1.8968    3.0878    0.3007 C   0  0  0  0  0  0  0  0  0  0  0  0
    1.5214    4.0414    1.2472 C   0  0  0  0  0  0  0  0  0  0  0  0
    5.4966   -0.3954   -0.7697 C   0  0  0  0  0  0  0  0  0  0  0  0
    0.8423   -1.7639   -1.1765 H   0  0  0  0  0  0  0  0  0  0  0  0
   -2.1604    0.9811    0.5690 H   0  0  0  0  0  0  0  0  0  0  0  0
   -4.0882    1.2205   -0.9226 H   0  0  0  0  0  0  0  0  0  0  0  0
    0.1940   -3.8763    2.5413 H   0  0  0  0  0  0  0  0  0  0  0  0
   -0.2762   -2.1825    2.4529 H   0  0  0  0  0  0  0  0  0  0  0  0
    1.4383   -2.6319    2.4854 H   0  0  0  0  0  0  0  0  0  0  0  0
   -1.7227   -2.8044    0.4796 H   0  0  0  0  0  0  0  0  0  0  0  0
   -1.1735   -4.4770    0.4637 H   0  0  0  0  0  0  0  0  0  0  0  0
   -1.0176   -3.4894   -0.9970 H   0  0  0  0  0  0  0  0  0  0  0  0
    2.4780   -3.8762    0.5330 H   0  0  0  0  0  0  0  0  0  0  0  0
    1.1870   -5.0766    0.5485 H   0  0  0  0  0  0  0  0  0  0  0  0
    1.5413   -4.1875   -0.9385 H   0  0  0  0  0  0  0  0  0  0  0  0
   -1.0868   -0.8359   -1.4847 H   0  0  0  0  0  0  0  0  0  0  0  0
   -2.2952    2.8055   -1.3049 H   0  0  0  0  0  0  0  0  0  0  0  0
   -1.0633    1.8914   -2.1481 H   0  0  0  0  0  0  0  0  0  0  0  0
    2.3890   -1.0407    1.2676 H   0  0  0  0  0  0  0  0  0  0  0  0
   -4.9268   -1.0839   -1.0771 H   0  0  0  0  0  0  0  0  0  0  0  0
   -3.3264   -1.7429   -0.8505 H   0  0  0  0  0  0  0  0  0  0  0  0
   -4.1303    0.1025   -2.8867 H   0  0  0  0  0  0  0  0  0  0  0  0
   -4.8297   -0.1162    1.1083 H   0  0  0  0  0  0  0  0  0  0  0  0
   -1.8423    3.9898    0.7820 H   0  0  0  0  0  0  0  0  0  0  0  0
    1.2348    1.7249   -1.2182 H   0  0  0  0  0  0  0  0  0  0  0  0
   -0.1174    5.1055    2.1538 H   0  0  0  0  0  0  0  0  0  0  0  0
    2.9453    2.8375    0.1677 H   0  0  0  0  0  0  0  0  0  0  0  0
    2.2777    4.5328    1.8523 H   0  0  0  0  0  0  0  0  0  0  0  0
   -4.0647   -2.8557    1.1706 H   0  0  0  0  0  0  0  0  0  0  0  0
   -4.9675   -2.0749    2.2737 H   0  0  0  0  0  0  0  0  0  0  0  0
    6.3223   -0.1025   -0.1158 H   0  0  0  0  0  0  0  0  0  0  0  0
    5.2926    0.4232   -1.4664 H   0  0  0  0  0  0  0  0  0  0  0  0
    5.7814   -1.3030   -1.3104 H   0  0  0  0  0  0  0  0  0  0  0  0
  1 13  1  0  0  0  0
  1 45  1  0  0  0  0
  2 12  2  0  0  0  0
  3 20  1  0  0  0  0
  3 26  1  0  0  0  0
  4 20  2  0  0  0  0
  5 11  1  0  0  0  0
  5 12  1  0  0  0  0
  5 39  1  0  0  0  0
  6 10  1  0  0  0  0
  6 20  1  0  0  0  0
  6 42  1  0  0  0  0
  7  8  1  0  0  0  0
  7 18  1  0  0  0  0
  7 46  1  0  0  0  0
  8 52  1  0  0  0  0
  8 53  1  0  0  0  0
  9 10  1  0  0  0  0
  9 14  1  0  0  0  0
  9 15  1  0  0  0  0
  9 16  1  0  0  0  0
 10 12  1  0  0  0  0
 10 27  1  0  0  0  0
 11 13  1  0  0  0  0
 11 17  1  0  0  0  0
 11 28  1  0  0  0  0
 13 18  1  0  0  0  0
 13 29  1  0  0  0  0
 14 30  1  0  0  0  0
 14 31  1  0  0  0  0
 14 32  1  0  0  0  0
 15 33  1  0  0  0  0
 15 34  1  0  0  0  0
 15 35  1  0  0  0  0
 16 36  1  0  0  0  0
 16 37  1  0  0  0  0
 16 38  1  0  0  0  0
 17 19  1  0  0  0  0
 17 40  1  0  0  0  0
 17 41  1  0  0  0  0
 18 43  1  0  0  0  0
 18 44  1  0  0  0  0
 19 21  2  0  0  0  0
 19 22  1  0  0  0  0
 21 23  1  0  0  0  0
 21 47  1  0  0  0  0
 22 24  2  0  0  0  0
 22 48  1  0  0  0  0
 23 25  2  0  0  0  0
 23 49  1  0  0  0  0
 24 25  1  0  0  0  0
 24 50  1  0  0  0  0
 25 51  1  0  0  0  0
 26 54  1  0  0  0  0
 26 55  1  0  0  0  0
 26 56  1  0  0  0  0
M  END
> <PUBCHEM_COMPOUND_CID>
118753185

> <PUBCHEM_CONFORMER_RMSD>
1

> <PUBCHEM_CONFORMER_DIVERSEORDER>
1
57
42
12
99
53
55
60
54
92
11
74
43
81
94
84
15
34
56
13
39
88
37
62
46
68
32
28
9
101
66
61
47
51
17
90
22
72
44
23
21
82
85
8
5
63
91
83
50
52
49
18
71
31
89
30
3
64
40
76
38
75
96
69
59
95
70
102
16
10
73
36
14
24
20
86
19
100
97
4
48
58
35
67
41
80
45
87
77
78
103
27
6
25
98
33
7
2
29
26
79
93
65

> <PUBCHEM_MMFF94_PARTIAL_CHARGES>
33
1 -0.68
10 0.36
11 0.3
12 0.57
13 0.28
17 0.14
18 0.27
19 -0.14
2 -0.57
20 0.78
21 -0.15
22 -0.15
23 -0.15
24 -0.15
25 -0.15
26 0.28
3 -0.43
39 0.37
4 -0.57
42 0.37
45 0.4
46 0.36
47 0.15
48 0.15
49 0.15
5 -0.73
50 0.15
51 0.15
52 0.36
53 0.36
6 -0.73
7 -0.63
8 -0.72

> <PUBCHEM_EFFECTIVE_ROTOR_COUNT>
12

> <PUBCHEM_PHARMACOPHORE_FEATURES>
10
1 1 acceptor
1 1 donor
1 2 acceptor
1 4 acceptor
1 5 donor
1 6 donor
1 7 donor
1 8 donor
4 9 14 15 16 hydrophobe
6 19 21 22 23 24 25 rings

> <PUBCHEM_HEAVY_ATOM_COUNT>
26

> <PUBCHEM_ATOM_DEF_STEREO_COUNT>
3

> <PUBCHEM_ATOM_UDEF_STEREO_COUNT>
0

> <PUBCHEM_BOND_DEF_STEREO_COUNT>
0

> <PUBCHEM_BOND_UDEF_STEREO_COUNT>
0

> <PUBCHEM_ISOTOPIC_ATOM_COUNT>
0

> <PUBCHEM_COMPONENT_COUNT>
1

> <PUBCHEM_CACTVS_TAUTO_COUNT>
8

> <PUBCHEM_CONFORMER_ID>
071407A100000001

> <PUBCHEM_MMFF94_ENERGY>
57.3707

> <PUBCHEM_FEATURE_SELFOVERLAP>
52.072

> <PUBCHEM_SHAPE_FINGERPRINT>
10006869 2 17693103963880227281
1100329 8 18339082712664134483
12035758 1 18265894833889798434
12422481 6 17252597180132573203
12553582 1 18196075652421246573
12788726 201 17767391393063438325
13140716 1 18192715763682721163
13149001 5 18337953523133953734
13911987 19 18335146397049790598
14178342 30 16824996566634605995
14787075 74 18333739039103591030
19591789 44 18263645224404035863
21041028 32 18271535246973346489
22182313 1 17970329628907470549
23419403 2 17680178396861729841
23557571 272 17764562366676781618
23558518 356 17979093599921973732
2748010 2 18043512005976361549
283562 15 18337116644577164930
469060 322 18264508199440624016
5171179 24 17907868649097041890
5265222 85 17109612307016568268
57527585 103 17100062657480587570
81228 2 17475202749429349297

> <PUBCHEM_SHAPE_MULTIPOLES>
491.67
6.82
6.26
1.58
1.16
3.33
-0.1
-3.82
-2.23
1.12
3.19
-0.58
-0.04
0.98

> <PUBCHEM_SHAPE_SELFOVERLAP>
987.686

> <PUBCHEM_SHAPE_VOLUME>
287.7

> <PUBCHEM_COORDINATE_TYPE>
2
5
10

$$$$
1515240
  -OEChem-07172408113D

 23 24  0     0  0  0  0  0  0999 V2000
    4.9060    0.6806   -0.1811 O   0  0  0  0  0  0  0  0  0  0  0  0
   -2.1365   -1.1099   -0.3365 N   0  0  0  0  0  0  0  0  0  0  0  0
   -0.0624   -0.0470    0.0223 C   0  0  0  0  0  0  0  0  0  0  0  0
   -1.5070    0.0336    0.0099 C   0  0  0  0  0  0  0  0  0  0  0  0
    0.7020    1.0850   -0.2602 C   0  0  0  0  0  0  0  0  0  0  0  0
    0.5659   -1.2566    0.3185 C   0  0  0  0  0  0  0  0  0  0  0  0
    2.7229   -0.2022    0.0494 C   0  0  0  0  0  0  0  0  0  0  0  0
    2.0947    1.0075   -0.2466 C   0  0  0  0  0  0  0  0  0  0  0  0
    1.9586   -1.3341    0.3321 C   0  0  0  0  0  0  0  0  0  0  0  0
   -2.1549    1.2126    0.3348 C   0  0  0  0  0  0  0  0  0  0  0  0
   -3.5449    1.2185    0.3023 C   0  0  0  0  0  0  0  0  0  0  0  0
   -4.2315    0.0616   -0.0493 C   0  0  0  0  0  0  0  0  0  0  0  0
   -3.4875   -1.0659   -0.3573 C   0  0  0  0  0  0  0  0  0  0  0  0
    4.1748   -0.2836    0.0619 C   0  0  0  0  0  0  0  0  0  0  0  0
    0.2549    2.0402   -0.5221 H   0  0  0  0  0  0  0  0  0  0  0  0
    0.0004   -2.1548    0.5547 H   0  0  0  0  0  0  0  0  0  0  0  0
    2.6705    1.9005   -0.4757 H   0  0  0  0  0  0  0  0  0  0  0  0
    2.4339   -2.2831    0.5670 H   0  0  0  0  0  0  0  0  0  0  0  0
   -1.6383    2.1171    0.6366 H   0  0  0  0  0  0  0  0  0  0  0  0
   -4.0929    2.1210    0.5563 H   0  0  0  0  0  0  0  0  0  0  0  0
   -5.3149    0.0427   -0.0799 H   0  0  0  0  0  0  0  0  0  0  0  0
   -3.9752   -1.9939   -0.6372 H   0  0  0  0  0  0  0  0  0  0  0  0
    4.6136   -1.2669    0.3027 H   0  0  0  0  0  0  0  0  0  0  0  0
  1 14  2  0  0  0  0
  2  4  1  0  0  0  0
  2 13  2  0  0  0  0
  3  4  1  0  0  0  0
  3  5  2  0  0  0  0
  3  6  1  0  0  0  0
  4 10  2  0  0  0  0
  5  8  1  0  0  0  0
  5 15  1  0  0  0  0
  6  9  2  0  0  0  0
  6 16  1  0  0  0  0
  7  8  2  0  0  0  0
  7  9  1  0  0  0  0
  7 14  1  0  0  0  0
  8 17  1  0  0  0  0
  9 18  1  0  0  0  0
 10 11  1  0  0  0  0
 10 19  1  0  0  0  0
 11 12  2  0  0  0  0
 11 20  1  0  0  0  0
 12 13  1  0  0  0  0
 12 21  1  0  0  0  0
 13 22  1  0  0  0  0
 14 23  1  0  0  0  0
M  END
> <PUBCHEM_COMPOUND_CID>
1515240

> <PUBCHEM_CONFORMER_RMSD>
0.6

> <PUBCHEM_CONFORMER_DIVERSEORDER>
2
3
1

> <PUBCHEM_MMFF94_PARTIAL_CHARGES>
22
1 -0.57
10 -0.15
11 -0.15
12 -0.15
13 0.16
14 0.42
15 0.15
16 0.15
17 0.15
18 0.15
19 0.15
2 -0.62
20 0.15
21 0.15
22 0.15
23 0.06
4 0.31
5 -0.15
6 -0.15
7 0.09
8 -0.15
9 -0.15

> <PUBCHEM_EFFECTIVE_ROTOR_COUNT>
2

> <PUBCHEM_PHARMACOPHORE_FEATURES>
4
1 1 acceptor
1 2 acceptor
6 2 4 10 11 12 13 rings
6 3 5 6 7 8 9 rings

> <PUBCHEM_HEAVY_ATOM_COUNT>
14

> <PUBCHEM_ATOM_DEF_STEREO_COUNT>
0

> <PUBCHEM_ATOM_UDEF_STEREO_COUNT>
0

> <PUBCHEM_BOND_DEF_STEREO_COUNT>
0

> <PUBCHEM_BOND_UDEF_STEREO_COUNT>
0

> <PUBCHEM_ISOTOPIC_ATOM_COUNT>
0

> <PUBCHEM_COMPONENT_COUNT>
1

> <PUBCHEM_CACTVS_TAUTO_COUNT>
1

> <PUBCHEM_CONFORMER_ID>
00171EE800000002

> <PUBCHEM_MMFF94_ENERGY>
42.3689

> <PUBCHEM_FEATURE_SELFOVERLAP>
20.297

> <PUBCHEM_SHAPE_FINGERPRINT>
11132069 177 18410289198966055840
11401426 45 18408881849963043588
11471102 20 18334010575604839926
11806522 49 18409445929197601150
12236239 1 18411418401940008943
12251169 10 18410576175964677717
12346645 44 18409166584614314154
13380535 76 18335423464905096203
13760787 5 17676206862452312326
14144814 61 18410573951129342507
14325111 11 18411136930820487169
15196674 1 18410292475830930338
15442244 35 18122906421530187594
15536298 74 18342458089171306606
15775835 57 18410295787361465873
17802600 8 18410006645894856389
18186145 218 18260827098581443276
18522853 276 18412825789371113937
19026448 4 17132113546221412818
200 152 18341604937083569367
20279233 1 15430038738412773811
20645477 70 18339921489691465743
21267235 1 18411145748778924351
23402539 116 18201431488996740005
23402655 69 18337666426108369173
23463225 33 18408885096715719807
23557571 272 17489594458677392937
23559900 14 18059855056970459106
3312278 4 18413109455039465611
474 4 17823421672491364196
4990 188 18131359583547925742
5104073 3 18410292475830885834
57096353 35 18338796818429463551
7364860 26 18199188382397886870
77779 3 18341896272835796950
9709674 26 18413395344895014079
9981440 41 17327737808700909008

> <PUBCHEM_SHAPE_MULTIPOLES>
277.26
8.33
1.42
0.66
2.24
0.06
-0.01
-0.74
0.24
-0.31
-0.03
-0.07
0.01
-0.48

> <PUBCHEM_SHAPE_SELFOVERLAP>
604.445

> <PUBCHEM_SHAPE_VOLUME>
150.5

> <PUBCHEM_COORDINATE_TYPE>
2
5
10

$$$$
11263950
  -OEChem-07172408113D

 28 27  0     1  0  0  0  0  0999 V2000
    1.2926    2.3059    0.7688 O   0  0  0  0  0  0  0  0  0  0  0  0
    0.5580    1.8562   -1.3282 O   0  0  0  0  0  0  0  0  0  0  0  0
   -2.8443   -0.6602   -0.5754 O   0  0  0  0  0  0  0  0  0  0  0  0
   -2.1145    0.5310    1.2477 O   0  0  0  0  0  0  0  0  0  0  0  0
   -0.6355   -0.3821   -0.2889 N   0  0  0  0  0  0  0  0  0  0  0  0
    1.7885   -0.9028    0.0504 C   0  0  0  0  0  0  0  0  0  0  0  0
    0.5977    0.0592    0.3208 C   0  0  1  0  0  0  0  0  0  0  0  0
    1.4499   -2.3238    0.5429 C   0  0  0  0  0  0  0  0  0  0  0  0
    3.0297   -0.4193    0.8310 C   0  0  0  0  0  0  0  0  0  0  0  0
    2.1535   -0.9764   -1.4446 C   0  0  0  0  0  0  0  0  0  0  0  0
    0.8086    1.4757   -0.1913 C   0  0  0  0  0  0  0  0  0  0  0  0
   -1.8850   -0.1086    0.2265 C   0  0  0  0  0  0  0  0  0  0  0  0
   -4.1993   -0.4547   -0.1598 C   0  0  0  0  0  0  0  0  0  0  0  0
    0.4139    0.1215    1.4017 H   0  0  0  0  0  0  0  0  0  0  0  0
    2.3062   -2.9984    0.4280 H   0  0  0  0  0  0  0  0  0  0  0  0
    1.1728   -2.3174    1.6031 H   0  0  0  0  0  0  0  0  0  0  0  0
    0.6164   -2.7590   -0.0191 H   0  0  0  0  0  0  0  0  0  0  0  0
    3.8639   -1.1220    0.7212 H   0  0  0  0  0  0  0  0  0  0  0  0
    2.8130   -0.3278    1.9013 H   0  0  0  0  0  0  0  0  0  0  0  0
    3.3791    0.5546    0.4723 H   0  0  0  0  0  0  0  0  0  0  0  0
    2.4660   -0.0025   -1.8349 H   0  0  0  0  0  0  0  0  0  0  0  0
    1.3172   -1.3329   -2.0541 H   0  0  0  0  0  0  0  0  0  0  0  0
    2.9882   -1.6688   -1.6072 H   0  0  0  0  0  0  0  0  0  0  0  0
   -0.5971   -0.8784   -1.1736 H   0  0  0  0  0  0  0  0  0  0  0  0
    1.4169    3.2193    0.4334 H   0  0  0  0  0  0  0  0  0  0  0  0
   -4.4314    0.6144   -0.1417 H   0  0  0  0  0  0  0  0  0  0  0  0
   -4.3656   -0.9042    0.8238 H   0  0  0  0  0  0  0  0  0  0  0  0
   -4.8549   -0.9442   -0.8849 H   0  0  0  0  0  0  0  0  0  0  0  0
  1 11  1  0  0  0  0
  1 25  1  0  0  0  0
  2 11  2  0  0  0  0
  3 12  1  0  0  0  0
  3 13  1  0  0  0  0
  4 12  2  0  0  0  0
  5  7  1  0  0  0  0
  5 12  1  0  0  0  0
  5 24  1  0  0  0  0
  6  7  1  0  0  0  0
  6  8  1  0  0  0  0
  6  9  1  0  0  0  0
  6 10  1  0  0  0  0
  7 11  1  0  0  0  0
  7 14  1  0  0  0  0
  8 15  1  0  0  0  0
  8 16  1  0  0  0  0
  8 17  1  0  0  0  0
  9 18  1  0  0  0  0
  9 19  1  0  0  0  0
  9 20  1  0  0  0  0
 10 21  1  0  0  0  0
 10 22  1  0  0  0  0
 10 23  1  0  0  0  0
 13 26  1  0  0  0  0
 13 27  1  0  0  0  0
 13 28  1  0  0  0  0
M  END
> <PUBCHEM_COMPOUND_CID>
11263950

> <PUBCHEM_CONFORMER_RMSD>
0.6

> <PUBCHEM_CONFORMER_DIVERSEORDER>
1
10
8
7
2
9
4
5
3
6

> <PUBCHEM_MMFF94_PARTIAL_CHARGES>
11
1 -0.65
11 0.66
12 0.78
13 0.28
2 -0.57
24 0.37
25 0.5
3 -0.43
4 -0.57
5 -0.73
7 0.36

> <PUBCHEM_EFFECTIVE_ROTOR_COUNT>
5

> <PUBCHEM_PHARMACOPHORE_FEATURES>
6
1 1 acceptor
1 2 acceptor
1 4 acceptor
1 5 donor
3 1 2 11 anion
4 6 8 9 10 hydrophobe

> <PUBCHEM_HEAVY_ATOM_COUNT>
13

> <PUBCHEM_ATOM_DEF_STEREO_COUNT>
1

> <PUBCHEM_ATOM_UDEF_STEREO_COUNT>
0

> <PUBCHEM_BOND_DEF_STEREO_COUNT>
0

> <PUBCHEM_BOND_UDEF_STEREO_COUNT>
0

> <PUBCHEM_ISOTOPIC_ATOM_COUNT>
0

> <PUBCHEM_COMPONENT_COUNT>
1

> <PUBCHEM_CACTVS_TAUTO_COUNT>
2

> <PUBCHEM_CONFORMER_ID>
00ABDFCE00000001

> <PUBCHEM_MMFF94_ENERGY>
27.0673

> <PUBCHEM_FEATURE_SELFOVERLAP>
30.505

> <PUBCHEM_SHAPE_FINGERPRINT>
10219947 1 18408879650997881986
11806522 49 18343015644276428542
12725867 57 18113892767087417356
14251717 144 18410568513410770698
14252887 29 18130792234878560642
15477762 27 18408037425133495719
15757776 16 18409161095672756366
16945 1 18041296386581945158
18186145 218 18260545645902599207
20201158 50 18040997319382513939
20559304 39 18059862791642225745
20645477 70 18271522100463380767
20653091 64 18342744030512779832
20708731 107 18188497976811321615
20711985 327 18412544284503497642
20711985 344 17835820594217972998
20871998 22 18270681948461114622
2255824 54 18334864969085546151
23419403 2 17027919392025105852
23526113 38 17240485762846058963
23552423 10 18339642343056046943
4369600 1 18264791920769392174
7364860 26 18060140997821899816
81228 2 17753896012828894192

> <PUBCHEM_SHAPE_MULTIPOLES>
239.08
5.05
2
1.13
5.66
0.62
0.21
-1.87
-0.12
-1.26
-0.07
-0.41
0.1
-0.11

> <PUBCHEM_SHAPE_SELFOVERLAP>
460.511

> <PUBCHEM_SHAPE_VOLUME>
145.9

> <PUBCHEM_COORDINATE_TYPE>
2
5
10

$$$$
11357515
  -OEChem-07172408113D

 40 41  0     1  0  0  0  0  0999 V2000
   -1.9224    3.7738    0.1988 O   0  0  0  0  0  0  0  0  0  0  0  0
    2.2759   -0.0644   -0.7014 O   0  0  0  0  0  0  0  0  0  0  0  0
    1.2811    0.3793    1.3207 O   0  0  0  0  0  0  0  0  0  0  0  0
    0.2816    0.9728   -0.6871 N   0  0  0  0  0  0  0  0  0  0  0  0
   -0.9446    3.0333   -0.5253 C   0  0  2  0  0  0  0  0  0  0  0  0
   -0.9171    1.5770   -0.1528 C   0  0  1  0  0  0  0  0  0  0  0  0
   -0.5459    4.0571    0.4809 C   0  0  0  0  0  0  0  0  0  0  0  0
   -2.1780    0.8545   -0.6528 C   0  0  0  0  0  0  0  0  0  0  0  0
   -2.1937   -0.6149   -0.3072 C   0  0  0  0  0  0  0  0  0  0  0  0
    1.2772    0.4262    0.0949 C   0  0  0  0  0  0  0  0  0  0  0  0
    3.3801   -0.6639   -0.0226 C   0  0  0  0  0  0  0  0  0  0  0  0
   -1.6432   -1.5272   -1.1936 C   0  0  0  0  0  0  0  0  0  0  0  0
   -2.7578   -1.0253    0.8904 C   0  0  0  0  0  0  0  0  0  0  0  0
    4.0297    0.3890    0.8742 C   0  0  0  0  0  0  0  0  0  0  0  0
    4.3657   -1.1469   -1.0845 C   0  0  0  0  0  0  0  0  0  0  0  0
    2.8622   -1.8396    0.8047 C   0  0  0  0  0  0  0  0  0  0  0  0
   -1.6574   -2.8849   -0.8743 C   0  0  0  0  0  0  0  0  0  0  0  0
   -2.7720   -2.3830    1.2097 C   0  0  0  0  0  0  0  0  0  0  0  0
   -2.2217   -3.3128    0.3273 C   0  0  0  0  0  0  0  0  0  0  0  0
   -0.8344    3.2404   -1.5803 H   0  0  0  0  0  0  0  0  0  0  0  0
   -0.8877    1.4832    0.9408 H   0  0  0  0  0  0  0  0  0  0  0  0
   -0.1465    4.9969    0.1220 H   0  0  0  0  0  0  0  0  0  0  0  0
   -0.1528    3.7357    1.4367 H   0  0  0  0  0  0  0  0  0  0  0  0
   -2.2692    0.9672   -1.7423 H   0  0  0  0  0  0  0  0  0  0  0  0
   -3.0763    1.3338   -0.2411 H   0  0  0  0  0  0  0  0  0  0  0  0
    0.4099    0.9640   -1.6948 H   0  0  0  0  0  0  0  0  0  0  0  0
   -1.2032   -1.2059   -2.1332 H   0  0  0  0  0  0  0  0  0  0  0  0
   -3.1864   -0.3082    1.5848 H   0  0  0  0  0  0  0  0  0  0  0  0
    3.4784    0.6084    1.7919 H   0  0  0  0  0  0  0  0  0  0  0  0
    5.0226    0.0551    1.1984 H   0  0  0  0  0  0  0  0  0  0  0  0
    4.1534    1.3375    0.3384 H   0  0  0  0  0  0  0  0  0  0  0  0
    4.7014   -0.3125   -1.7109 H   0  0  0  0  0  0  0  0  0  0  0  0
    3.8880   -1.8672   -1.7585 H   0  0  0  0  0  0  0  0  0  0  0  0
    5.2462   -1.6210   -0.6387 H   0  0  0  0  0  0  0  0  0  0  0  0
    2.1538   -2.4447    0.2268 H   0  0  0  0  0  0  0  0  0  0  0  0
    3.6921   -2.4906    1.1049 H   0  0  0  0  0  0  0  0  0  0  0  0
    2.3613   -1.5567    1.7339 H   0  0  0  0  0  0  0  0  0  0  0  0
   -1.2287   -3.6088   -1.5612 H   0  0  0  0  0  0  0  0  0  0  0  0
   -3.2106   -2.7163    2.1457 H   0  0  0  0  0  0  0  0  0  0  0  0
   -2.2323   -4.3700    0.5761 H   0  0  0  0  0  0  0  0  0  0  0  0
  1  5  1  0  0  0  0
  1  7  1  0  0  0  0
  2 10  1  0  0  0  0
  2 11  1  0  0  0  0
  3 10  2  0  0  0  0
  4  6  1  0  0  0  0
  4 10  1  0  0  0  0
  4 26  1  0  0  0  0
  5  6  1  0  0  0  0
  5  7  1  0  0  0  0
  5 20  1  0  0  0  0
  6  8  1  0  0  0  0
  6 21  1  0  0  0  0
  7 22  1  0  0  0  0
  7 23  1  0  0  0  0
  8  9  1  0  0  0  0
  8 24  1  0  0  0  0
  8 25  1  0  0  0  0
  9 12  2  0  0  0  0
  9 13  1  0  0  0  0
 11 14  1  0  0  0  0
 11 15  1  0  0  0  0
 11 16  1  0  0  0  0
 12 17  1  0  0  0  0
 12 27  1  0  0  0  0
 13 18  2  0  0  0  0
 13 28  1  0  0  0  0
 14 29  1  0  0  0  0
 14 30  1  0  0  0  0
 14 31  1  0  0  0  0
 15 32  1  0  0  0  0
 15 33  1  0  0  0  0
 15 34  1  0  0  0  0
 16 35  1  0  0  0  0
 16 36  1  0  0  0  0
 16 37  1  0  0  0  0
 17 19  2  0  0  0  0
 17 38  1  0  0  0  0
 18 19  1  0  0  0  0
 18 39  1  0  0  0  0
 19 40  1  0  0  0  0
M  END
> <PUBCHEM_COMPOUND_CID>
11357515

> <PUBCHEM_CONFORMER_RMSD>
0.8

> <PUBCHEM_CONFORMER_DIVERSEORDER>
1
12
59
67
27
19
56
40
23
64
48
25
21
66
57
31
36
38
28
6
54
61
4
62
3
41
39
51
65
9
30
43
44
46
8
5
35
63
22
55
7
58
50
47
33
14
52
13
26
16
17
18
34
11
37
42
24
2
29
10
45
32
20
49
15
53
60

> <PUBCHEM_MMFF94_PARTIAL_CHARGES>
25
1 -0.3
10 0.78
11 0.28
12 -0.15
13 -0.15
17 -0.15
18 -0.15
19 -0.15
2 -0.43
20 0.1
22 0.1
23 0.1
26 0.37
27 0.15
28 0.15
3 -0.57
38 0.15
39 0.15
4 -0.73
40 0.15
5 -0.05
6 0.4
7 -0.05
8 0.14
9 -0.14

> <PUBCHEM_EFFECTIVE_ROTOR_COUNT>
7.6

> <PUBCHEM_PHARMACOPHORE_FEATURES>
5
1 1 acceptor
1 3 acceptor
1 4 donor
4 11 14 15 16 hydrophobe
6 9 12 13 17 18 19 rings

> <PUBCHEM_HEAVY_ATOM_COUNT>
19

> <PUBCHEM_ATOM_DEF_STEREO_COUNT>
2

> <PUBCHEM_ATOM_UDEF_STEREO_COUNT>
0

> <PUBCHEM_BOND_DEF_STEREO_COUNT>
0

> <PUBCHEM_BOND_UDEF_STEREO_COUNT>
0

> <PUBCHEM_ISOTOPIC_ATOM_COUNT>
0

> <PUBCHEM_COMPONENT_COUNT>
1

> <PUBCHEM_CACTVS_TAUTO_COUNT>
2

> <PUBCHEM_CONFORMER_ID>
00AD4D4B00000001

> <PUBCHEM_MMFF94_ENERGY>
46.0602

> <PUBCHEM_FEATURE_SELFOVERLAP>
25.371

> <PUBCHEM_SHAPE_FINGERPRINT>
107951 10 17836662824340754558
12173636 292 18050559647597953900
12500047 106 18123747552863858260
12553582 1 18266184009447789494
12592029 89 17329995690108540385
12788726 201 18337664209683464323
13140716 1 18337668723551706688
136203 1 18338800013700878817
14081887 123 18339059563248955688
14178342 30 18262224514121587602
14787075 74 17754738557090721812
14863182 85 16169198976644423215
16752209 62 18195231231306066455
18915476 22 17329406854835586783
20291156 8 18263087771866601502
20510252 161 18199179590499546753
20645476 183 18049727317442991772
20645477 70 17327156154481145215
21524375 3 17620462524429812797
21650355 55 18410568517779474109
21665056 4 18049156666259611742
21731516 1 18192720165855232151
2255824 54 17402337464878540285
23557571 272 18411972568849281964
23598288 3 18336559264853701941
23728640 28 18192981626236903299
3091708 16 9132999315171816713
43471831 8 17761489188933573149
6287921 2 17552077724519856050
7097593 13 17979932819135620835
7364860 26 17618223248803643693
81228 2 18338498773353406065
90316 7 18411708707200941475
9709674 26 18270393880999781158

> <PUBCHEM_SHAPE_MULTIPOLES>
368.42
6.27
4.72
1.17
7.01
4.63
0.05
-4.86
0.43
-3.72
0.33
0.03
-0.44
0.5

> <PUBCHEM_SHAPE_SELFOVERLAP>
756.316

> <PUBCHEM_SHAPE_VOLUME>
213.5

> <PUBCHEM_COORDINATE_TYPE>
2
5
10

$$$$
11653592
  -OEChem-07172408113D

 53 54  0     1  0  0  0  0  0999 V2000
   -2.1455   -0.8303   -1.7653 O   0  0  0  0  0  0  0  0  0  0  0  0
   -0.5495    3.1587   -0.4948 O   0  0  0  0  0  0  0  0  0  0  0  0
   -0.9286    2.0912    1.5031 O   0  0  0  0  0  0  0  0  0  0  0  0
   -2.0884    1.5254   -0.4249 N   0  0  0  0  0  0  0  0  0  0  0  0
   -2.4374   -1.8928    0.2773 N   0  0  0  0  0  0  0  0  0  0  0  0
   -2.0241   -3.1210   -0.2117 N   0  0  0  0  0  0  0  0  0  0  0  0
    3.3472    1.1899   -0.2141 N   0  0  0  0  0  0  0  0  0  0  0  0
   -4.4391    0.7718    0.0154 C   0  0  0  0  0  0  0  0  0  0  0  0
   -2.9135    0.4769    0.1278 C   0  0  1  0  0  0  0  0  0  0  0  0
   -4.8371    2.0981    0.6911 C   0  0  0  0  0  0  0  0  0  0  0  0
   -5.2551   -0.3660    0.6622 C   0  0  0  0  0  0  0  0  0  0  0  0
   -4.8394    0.8449   -1.4744 C   0  0  0  0  0  0  0  0  0  0  0  0
   -2.4647   -0.8028   -0.5774 C   0  0  0  0  0  0  0  0  0  0  0  0
   -1.1671    2.2427    0.3095 C   0  0  0  0  0  0  0  0  0  0  0  0
   -0.8744   -3.6005    0.5431 C   0  0  0  0  0  0  0  0  0  0  0  0
    0.3131   -2.6865    0.3975 C   0  0  0  0  0  0  0  0  0  0  0  0
    0.4943   -1.6314    1.2917 C   0  0  0  0  0  0  0  0  0  0  0  0
    1.2315   -2.8941   -0.6317 C   0  0  0  0  0  0  0  0  0  0  0  0
    2.5122   -0.9914    0.1277 C   0  0  0  0  0  0  0  0  0  0  0  0
    1.5938   -0.7839    1.1568 C   0  0  0  0  0  0  0  0  0  0  0  0
    2.3311   -2.0465   -0.7666 C   0  0  0  0  0  0  0  0  0  0  0  0
    0.4386    3.9797    0.1380 C   0  0  0  0  0  0  0  0  0  0  0  0
    3.6519   -0.1116   -0.0128 C   0  0  0  0  0  0  0  0  0  0  0  0
    4.9453   -0.6034    0.0591 C   0  0  0  0  0  0  0  0  0  0  0  0
    5.9934    0.2990   -0.0845 C   0  0  0  0  0  0  0  0  0  0  0  0
    4.3917    2.0374   -0.3492 C   0  0  0  0  0  0  0  0  0  0  0  0
    5.7198    1.6464   -0.2928 C   0  0  0  0  0  0  0  0  0  0  0  0
   -2.6650    0.3833    1.1931 H   0  0  0  0  0  0  0  0  0  0  0  0
   -5.9180    2.2683    0.6323 H   0  0  0  0  0  0  0  0  0  0  0  0
   -4.3443    2.9538    0.2172 H   0  0  0  0  0  0  0  0  0  0  0  0
   -4.5562    2.0940    1.7501 H   0  0  0  0  0  0  0  0  0  0  0  0
   -5.1233   -1.3173    0.1368 H   0  0  0  0  0  0  0  0  0  0  0  0
   -6.3276   -0.1397    0.6464 H   0  0  0  0  0  0  0  0  0  0  0  0
   -4.9643   -0.5111    1.7086 H   0  0  0  0  0  0  0  0  0  0  0  0
   -4.6634   -0.0999   -1.9985 H   0  0  0  0  0  0  0  0  0  0  0  0
   -5.9093    1.0651   -1.5749 H   0  0  0  0  0  0  0  0  0  0  0  0
   -4.3013    1.6368   -2.0054 H   0  0  0  0  0  0  0  0  0  0  0  0
   -2.1550    1.7258   -1.4183 H   0  0  0  0  0  0  0  0  0  0  0  0
   -2.7297   -1.8357    1.2481 H   0  0  0  0  0  0  0  0  0  0  0  0
   -2.8036   -3.7656   -0.0849 H   0  0  0  0  0  0  0  0  0  0  0  0
   -1.1263   -3.7274    1.6046 H   0  0  0  0  0  0  0  0  0  0  0  0
   -0.6067   -4.6017    0.1834 H   0  0  0  0  0  0  0  0  0  0  0  0
   -0.2090   -1.4601    2.1025 H   0  0  0  0  0  0  0  0  0  0  0  0
    1.0997   -3.7105   -1.3368 H   0  0  0  0  0  0  0  0  0  0  0  0
    1.7197    0.0313    1.8655 H   0  0  0  0  0  0  0  0  0  0  0  0
    3.0317   -2.2219   -1.5795 H   0  0  0  0  0  0  0  0  0  0  0  0
   -0.0288    4.6085    0.9014 H   0  0  0  0  0  0  0  0  0  0  0  0
    1.2257    3.3592    0.5766 H   0  0  0  0  0  0  0  0  0  0  0  0
    0.8843    4.6239   -0.6246 H   0  0  0  0  0  0  0  0  0  0  0  0
    5.1555   -1.6549    0.2269 H   0  0  0  0  0  0  0  0  0  0  0  0
    7.0215   -0.0466   -0.0328 H   0  0  0  0  0  0  0  0  0  0  0  0
    4.1246    3.0768   -0.5094 H   0  0  0  0  0  0  0  0  0  0  0  0
    6.5208    2.3676   -0.4070 H   0  0  0  0  0  0  0  0  0  0  0  0
  1 13  2  0  0  0  0
  2 14  1  0  0  0  0
  2 22  1  0  0  0  0
  3 14  2  0  0  0  0
  4  9  1  0  0  0  0
  4 14  1  0  0  0  0
  4 38  1  0  0  0  0
  5  6  1  0  0  0  0
  5 13  1  0  0  0  0
  5 39  1  0  0  0  0
  6 15  1  0  0  0  0
  6 40  1  0  0  0  0
  7 23  1  0  0  0  0
  7 26  2  0  0  0  0
  8  9  1  0  0  0  0
  8 10  1  0  0  0  0
  8 11  1  0  0  0  0
  8 12  1  0  0  0  0
  9 13  1  0  0  0  0
  9 28  1  0  0  0  0
 10 29  1  0  0  0  0
 10 30  1  0  0  0  0
 10 31  1  0  0  0  0
 11 32  1  0  0  0  0
 11 33  1  0  0  0  0
 11 34  1  0  0  0  0
 12 35  1  0  0  0  0
 12 36  1  0  0  0  0
 12 37  1  0  0  0  0
 15 16  1  0  0  0  0
 15 41  1  0  0  0  0
 15 42  1  0  0  0  0
 16 17  2  0  0  0  0
 16 18  1  0  0  0  0
 17 20  1  0  0  0  0
 17 43  1  0  0  0  0
 18 21  2  0  0  0  0
 18 44  1  0  0  0  0
 19 20  2  0  0  0  0
 19 21  1  0  0  0  0
 19 23  1  0  0  0  0
 20 45  1  0  0  0  0
 21 46  1  0  0  0  0
 22 47  1  0  0  0  0
 22 48  1  0  0  0  0
 22 49  1  0  0  0  0
 23 24  2  0  0  0  0
 24 25  1  0  0  0  0
 24 50  1  0  0  0  0
 25 27  2  0  0  0  0
 25 51  1  0  0  0  0
 26 27  1  0  0  0  0
 26 52  1  0  0  0  0
 27 53  1  0  0  0  0
M  END
> <PUBCHEM_COMPOUND_CID>
11653592

> <PUBCHEM_CONFORMER_RMSD>
1

> <PUBCHEM_CONFORMER_DIVERSEORDER>
1
52
112
64
53
157
73
96
126
28
37
116
148
9
49
7
38
94
141
12
89
105
46
110
5
145
22
153
87
21
151
45
81
128
59
107
8
144
108
10
77
91
2
102
71
63
133
78
66
35
140
20
160
61
147
32
43
80
19
142
152
79
99
156
100
135
29
76
86
74
159
55
65
27
84
121
118
70
136
143
30
95
115
57
68
97
154
134
85
125
90
117
24
129
3
23
60
14
51
88
149
83
33
13
139
106
58
11
75
124
122
119
132
47
158
127
92
137
17
101
54
18
42
4
114
16
104
67
111
150
131
26
103
120
15
109
39
48
113
6
36
25
40
50
123
138
82
34
41
130
69
31
93
146
56
62
98
155
44
72

> <PUBCHEM_MMFF94_PARTIAL_CHARGES>
33
1 -0.57
13 0.57
14 0.78
15 0.41
16 -0.14
17 -0.15
18 -0.15
2 -0.43
20 -0.15
21 -0.15
22 0.28
23 0.31
24 -0.15
25 -0.15
26 0.16
27 -0.15
3 -0.57
38 0.37
39 0.37
4 -0.73
40 0.36
43 0.15
44 0.15
45 0.15
46 0.15
5 -0.42
50 0.15
51 0.15
52 0.15
53 0.15
6 -0.64
7 -0.62
9 0.36

> <PUBCHEM_EFFECTIVE_ROTOR_COUNT>
10

> <PUBCHEM_PHARMACOPHORE_FEATURES>
9
1 1 acceptor
1 3 acceptor
1 4 donor
1 5 donor
1 6 donor
1 7 acceptor
4 8 10 11 12 hydrophobe
6 16 17 18 19 20 21 rings
6 7 23 24 25 26 27 rings

> <PUBCHEM_HEAVY_ATOM_COUNT>
27

> <PUBCHEM_ATOM_DEF_STEREO_COUNT>
1

> <PUBCHEM_ATOM_UDEF_STEREO_COUNT>
0

> <PUBCHEM_BOND_DEF_STEREO_COUNT>
0

> <PUBCHEM_BOND_UDEF_STEREO_COUNT>
0

> <PUBCHEM_ISOTOPIC_ATOM_COUNT>
0

> <PUBCHEM_COMPONENT_COUNT>
1

> <PUBCHEM_CACTVS_TAUTO_COUNT>
4

> <PUBCHEM_CONFORMER_ID>
00B1D1D800000001

> <PUBCHEM_MMFF94_ENERGY>
72.3791

> <PUBCHEM_FEATURE_SELFOVERLAP>
47.162

> <PUBCHEM_SHAPE_FINGERPRINT>
10498660 4 18336827485878003687
10675989 125 17467054264709075029
1100329 8 18337957912247911513
11112241 14 16913951884564290880
11135609 187 18337379475539421229
11513181 2 17915740873516154759
12107698 1 17914053088507456798
12553582 1 18339909468262425505
12788726 201 18130786698707771920
12838862 33 18337653274549639725
13402501 40 18410294730878807784
14117953 113 18336264544451395988
14765038 42 18271544029986268985
14787075 74 18410852175195962415
14790565 3 18339367366254650769
14840074 17 17967821547820759284
14932702 115 18126860514974701456
15219462 58 16664889097822752921
15297060 5 18270975630251767384
15575132 122 18114743737410870404
17492 54 18335124415370154863
19611394 137 18043264624392577051
20101258 96 17543079330091282802
20775438 99 16330431297122354414
21585483 110 18264480699118916453
21857420 4 15544820287773541806
22113638 7 18335986471014871892
23227448 37 18410857702275475655
23402539 116 18341609356578705478
2838139 119 18410005555226286630
3680242 22 18334574595158183728
463206 1 18337113466091213796
469060 322 16588306141637435363
59755656 215 18340210696373615822
7288768 16 18113621187652358531
7808743 9 18409727378526132803

> <PUBCHEM_SHAPE_MULTIPOLES>
518.12
11.57
4.39
1.09
4.93
0.14
-0.06
5.7
-1.19
-0.39
0.24
-0.7
-0.1
-0.27

> <PUBCHEM_SHAPE_SELFOVERLAP>
1080.529

> <PUBCHEM_SHAPE_VOLUME>
293

> <PUBCHEM_COORDINATE_TYPE>
2
5
10

$$$$
821692
  -OEChem-07172408113D

 24 25  0     0  0  0  0  0  0999 V2000
    4.3979    1.2087    0.0099 O   0  0  0  0  0  0  0  0  0  0  0  0
    4.5765   -1.0573    0.0078 O   0  0  0  0  0  0  0  0  0  0  0  0
   -2.3981   -0.0033    1.1885 N   0  0  0  0  0  0  0  0  0  0  0  0
   -0.3759   -0.0135   -0.0244 C   0  0  0  0  0  0  0  0  0  0  0  0
   -1.8227   -0.0030   -0.0334 C   0  0  0  0  0  0  0  0  0  0  0  0
    0.3305    1.1892   -0.0159 C   0  0  0  0  0  0  0  0  0  0  0  0
    0.3126   -1.2266   -0.0224 C   0  0  0  0  0  0  0  0  0  0  0  0
    2.4138   -0.0342   -0.0037 C   0  0  0  0  0  0  0  0  0  0  0  0
    1.7253    1.1789   -0.0055 C   0  0  0  0  0  0  0  0  0  0  0  0
    1.7074   -1.2370   -0.0119 C   0  0  0  0  0  0  0  0  0  0  0  0
   -2.5253    0.0061   -1.2258 C   0  0  0  0  0  0  0  0  0  0  0  0
   -3.9141    0.0155   -1.1600 C   0  0  0  0  0  0  0  0  0  0  0  0
   -4.5459    0.0156    0.0787 C   0  0  0  0  0  0  0  0  0  0  0  0
   -3.7499    0.0061    1.2126 C   0  0  0  0  0  0  0  0  0  0  0  0
    3.8679   -0.0452    0.0054 C   0  0  0  0  0  0  0  0  0  0  0  0
   -0.1917    2.1431   -0.0164 H   0  0  0  0  0  0  0  0  0  0  0  0
   -0.2232   -2.1729   -0.0280 H   0  0  0  0  0  0  0  0  0  0  0  0
    2.2353    2.1381    0.0009 H   0  0  0  0  0  0  0  0  0  0  0  0
    2.2251   -2.1927   -0.0107 H   0  0  0  0  0  0  0  0  0  0  0  0
   -2.0250    0.0059   -2.1888 H   0  0  0  0  0  0  0  0  0  0  0  0
   -4.5032    0.0228   -2.0721 H   0  0  0  0  0  0  0  0  0  0  0  0
   -5.6272    0.0228    0.1540 H   0  0  0  0  0  0  0  0  0  0  0  0
   -4.1937    0.0057    2.2027 H   0  0  0  0  0  0  0  0  0  0  0  0
    5.3788    1.1902    0.0154 H   0  0  0  0  0  0  0  0  0  0  0  0
  1 15  1  0  0  0  0
  1 24  1  0  0  0  0
  2 15  2  0  0  0  0
  3  5  1  0  0  0  0
  3 14  2  0  0  0  0
  4  5  1  0  0  0  0
  4  6  2  0  0  0  0
  4  7  1  0  0  0  0
  5 11  2  0  0  0  0
  6  9  1  0  0  0  0
  6 16  1  0  0  0  0
  7 10  2  0  0  0  0
  7 17  1  0  0  0  0
  8  9  2  0  0  0  0
  8 10  1  0  0  0  0
  8 15  1  0  0  0  0
  9 18  1  0  0  0  0
 10 19  1  0  0  0  0
 11 12  1  0  0  0  0
 11 20  1  0  0  0  0
 12 13  2  0  0  0  0
 12 21  1  0  0  0  0
 13 14  1  0  0  0  0
 13 22  1  0  0  0  0
 14 23  1  0  0  0  0
M  END
> <PUBCHEM_COMPOUND_CID>
821692

> <PUBCHEM_CONFORMER_RMSD>
0.6

> <PUBCHEM_CONFORMER_DIVERSEORDER>
1
2

> <PUBCHEM_MMFF94_PARTIAL_CHARGES>
23
1 -0.65
10 -0.15
11 -0.15
12 -0.15
13 -0.15
14 0.16
15 0.63
16 0.15
17 0.15
18 0.15
19 0.15
2 -0.57
20 0.15
21 0.15
22 0.15
23 0.15
24 0.5
3 -0.62
5 0.31
6 -0.15
7 -0.15
8 0.09
9 -0.15

> <PUBCHEM_EFFECTIVE_ROTOR_COUNT>
2

> <PUBCHEM_PHARMACOPHORE_FEATURES>
6
1 1 acceptor
1 2 acceptor
1 3 acceptor
3 1 2 15 anion
6 3 5 11 12 13 14 rings
6 4 6 7 8 9 10 rings

> <PUBCHEM_HEAVY_ATOM_COUNT>
15

> <PUBCHEM_ATOM_DEF_STEREO_COUNT>
0

> <PUBCHEM_ATOM_UDEF_STEREO_COUNT>
0

> <PUBCHEM_BOND_DEF_STEREO_COUNT>
0

> <PUBCHEM_BOND_UDEF_STEREO_COUNT>
0

> <PUBCHEM_ISOTOPIC_ATOM_COUNT>
0

> <PUBCHEM_COMPONENT_COUNT>
1

> <PUBCHEM_CACTVS_TAUTO_COUNT>
1

> <PUBCHEM_CONFORMER_ID>
000C89BC00000001

> <PUBCHEM_MMFF94_ENERGY>
48.6987

> <PUBCHEM_FEATURE_SELFOVERLAP>
30.504

> <PUBCHEM_SHAPE_FINGERPRINT>
10219947 1 18410294713793656740
10465860 250 16950276312776985700
11401426 45 18342731923110787452
11471102 20 18410009944687864812
11543360 7 15913045482122327184
12032990 46 18260833674508734630
12236239 1 17847061082404413349
124424 183 17748825215540770817
12500047 106 16370719340351597771
13581323 91 15430035461215622147
13675066 3 17894350003467332002
13760787 19 15626226810038635812
13760787 5 18412545409916856532
14993402 34 18060697303460693566
15219456 202 17821726109391059243
15309172 13 18411983559317086663
15375358 24 17967530172906987939
15653759 3 17022620896650808621
16945 1 18410856559866642974
17834072 33 17632572790215925141
18175812 5 17603587460537129135
18186145 218 18343584070624330252
19026448 4 17022620879655419348
19026448 5 16988562407473423484
200 152 18272083912118105767
20279233 1 17748830704830942843
204376 136 18336266833510481094
20645477 70 18335413522298548438
22094290 60 16298386851121264045
22485316 2 17530682117037639338
22854114 59 18334295383233553136
23175994 123 18186525392948507141
23402539 116 15410889639882999929
23402655 69 18342451509376263965
23557571 272 16805604711788056455
23559900 14 16733259046067790634
265663 24 17203608189915574910
474 4 17700678817074231576
573450 72 16702018638998336495
77492 1 17703790319116297127

> <PUBCHEM_SHAPE_MULTIPOLES>
291.97
9.03
1.14
0.98
1.43
0.01
0
0.06
0.05
1.03
-0.01
-1.2
0
0.01

> <PUBCHEM_SHAPE_SELFOVERLAP>
637.604

> <PUBCHEM_SHAPE_VOLUME>
158.2

> <PUBCHEM_COORDINATE_TYPE>
2
5
10

$$$$
