162641253
  -OEChem-07172408123D

 67 70  0     1  0  0  0  0  0999 V2000
   -1.4311   -1.8359    1.6629 O   0  0  0  0  0  0  0  0  0  0  0  0
   -2.7411   -1.3553    3.4389 O   0  0  0  0  0  0  0  0  0  0  0  0
    1.8784   -0.3750   -1.6473 O   0  0  0  0  0  0  0  0  0  0  0  0
    3.2718    1.6622   -0.5714 O   0  0  0  0  0  0  0  0  0  0  0  0
   -3.3441   -0.4970    1.4038 N   0  0  0  0  0  0  0  0  0  0  0  0
    1.0107   -0.9980    0.4183 N   0  0  0  0  0  0  0  0  0  0  0  0
   -1.2481   -1.8731    0.2293 C   0  0  1  0  0  0  0  0  0  0  0  0
   -1.7150   -0.5742   -0.4087 C   0  0  0  0  0  0  0  0  0  0  0  0
   -3.1742   -0.3617   -0.0333 C   0  0  2  0  0  0  0  0  0  0  0  0
    0.2286   -2.1255   -0.0393 C   0  0  2  0  0  0  0  0  0  0  0  0
   -3.6801    0.9935   -0.5126 C   0  0  0  0  0  0  0  0  0  0  0  0
    0.6917   -3.4288    0.6331 C   0  0  0  0  0  0  0  0  0  0  0  0
   -2.5255   -1.2415    2.2331 C   0  0  0  0  0  0  0  0  0  0  0  0
   -5.1833    1.0385   -0.5717 C   0  0  0  0  0  0  0  0  0  0  0  0
    1.9670   -3.9803    0.0408 C   0  0  0  0  0  0  0  0  0  0  0  0
    1.7727   -0.2163   -0.4342 C   0  0  0  0  0  0  0  0  0  0  0  0
   -5.8460    0.6679   -1.7419 C   0  0  0  0  0  0  0  0  0  0  0  0
   -5.9138    1.4509    0.5427 C   0  0  0  0  0  0  0  0  0  0  0  0
    3.2023   -3.5954    0.5622 C   0  0  0  0  0  0  0  0  0  0  0  0
    1.9091   -4.8750   -1.0276 C   0  0  0  0  0  0  0  0  0  0  0  0
    2.4867    0.8903    0.3124 C   0  0  0  0  0  0  0  0  0  0  0  0
    4.3796   -4.1054    0.0150 C   0  0  0  0  0  0  0  0  0  0  0  0
    3.0865   -5.3850   -1.5748 C   0  0  0  0  0  0  0  0  0  0  0  0
   -7.2392    0.7098   -1.7975 C   0  0  0  0  0  0  0  0  0  0  0  0
   -7.3069    1.4927    0.4870 C   0  0  0  0  0  0  0  0  0  0  0  0
    4.3217   -5.0003   -1.0535 C   0  0  0  0  0  0  0  0  0  0  0  0
   -7.9695    1.1222   -0.6831 C   0  0  0  0  0  0  0  0  0  0  0  0
    3.4808    2.9797   -0.2377 C   0  0  0  0  0  0  0  0  0  0  0  0
    2.5929    3.9608   -0.6790 C   0  0  0  0  0  0  0  0  0  0  0  0
    4.5813    3.3348    0.5422 C   0  0  0  0  0  0  0  0  0  0  0  0
    2.8057    5.2971   -0.3404 C   0  0  0  0  0  0  0  0  0  0  0  0
    4.7941    4.6711    0.8808 C   0  0  0  0  0  0  0  0  0  0  0  0
    1.4076    3.6008   -1.5130 C   0  0  0  0  0  0  0  0  0  0  0  0
    5.5425    2.2990    1.0250 C   0  0  0  0  0  0  0  0  0  0  0  0
    3.9062    5.6523    0.4395 C   0  0  0  0  0  0  0  0  0  0  0  0
   -1.8381   -2.7170   -0.1507 H   0  0  0  0  0  0  0  0  0  0  0  0
   -1.5936   -0.6064   -1.4974 H   0  0  0  0  0  0  0  0  0  0  0  0
   -1.1384    0.2790   -0.0299 H   0  0  0  0  0  0  0  0  0  0  0  0
   -3.7690   -1.1682   -0.4821 H   0  0  0  0  0  0  0  0  0  0  0  0
    0.3561   -2.2226   -1.1253 H   0  0  0  0  0  0  0  0  0  0  0  0
   -3.3080    1.8035    0.1288 H   0  0  0  0  0  0  0  0  0  0  0  0
   -3.2914    1.2092   -1.5169 H   0  0  0  0  0  0  0  0  0  0  0  0
    0.8281   -3.2867    1.7137 H   0  0  0  0  0  0  0  0  0  0  0  0
   -0.0846   -4.1995    0.5333 H   0  0  0  0  0  0  0  0  0  0  0  0
   -4.1827   -0.1147    1.8276 H   0  0  0  0  0  0  0  0  0  0  0  0
    0.9912   -0.7771    1.4099 H   0  0  0  0  0  0  0  0  0  0  0  0
   -5.2886    0.3426   -2.6163 H   0  0  0  0  0  0  0  0  0  0  0  0
   -5.4125    1.7543    1.4577 H   0  0  0  0  0  0  0  0  0  0  0  0
    3.2612   -2.8993    1.3946 H   0  0  0  0  0  0  0  0  0  0  0  0
    0.9530   -5.1806   -1.4442 H   0  0  0  0  0  0  0  0  0  0  0  0
    1.7323    1.5032    0.8217 H   0  0  0  0  0  0  0  0  0  0  0  0
    3.1387    0.4347    1.0658 H   0  0  0  0  0  0  0  0  0  0  0  0
    5.3414   -3.8056    0.4207 H   0  0  0  0  0  0  0  0  0  0  0  0
    3.0415   -6.0812   -2.4071 H   0  0  0  0  0  0  0  0  0  0  0  0
   -7.7553    0.4209   -2.7084 H   0  0  0  0  0  0  0  0  0  0  0  0
   -7.8756    1.8164    1.3538 H   0  0  0  0  0  0  0  0  0  0  0  0
    5.2384   -5.3971   -1.4797 H   0  0  0  0  0  0  0  0  0  0  0  0
   -9.0542    1.1553   -0.7266 H   0  0  0  0  0  0  0  0  0  0  0  0
    2.1221    6.0731   -0.6745 H   1  0  0  0  0  0  0  0  0  0  0  0
    5.6456    4.9633    1.4895 H   1  0  0  0  0  0  0  0  0  0  0  0
    1.6961    2.9329   -2.3316 H   1  0  0  0  0  0  0  0  0  0  0  0
    0.9512    4.4855   -1.9702 H   1  0  0  0  0  0  0  0  0  0  0  0
    0.6464    3.1087   -0.8994 H   1  0  0  0  0  0  0  0  0  0  0  0
    5.1200    1.7592    1.8781 H   1  0  0  0  0  0  0  0  0  0  0  0
    6.4896    2.7480    1.3436 H   1  0  0  0  0  0  0  0  0  0  0  0
    5.7838    1.5848    0.2306 H   1  0  0  0  0  0  0  0  0  0  0  0
    4.0714    6.6926    0.7040 H   1  0  0  0  0  0  0  0  0  0  0  0
  1  7  1  0  0  0  0
  1 13  1  0  0  0  0
  2 13  2  0  0  0  0
  3 16  2  0  0  0  0
  4 21  1  0  0  0  0
  4 28  1  0  0  0  0
  5  9  1  0  0  0  0
  5 13  1  0  0  0  0
  5 45  1  0  0  0  0
  6 10  1  0  0  0  0
  6 16  1  0  0  0  0
  6 46  1  0  0  0  0
  7  8  1  0  0  0  0
  7 10  1  0  0  0  0
  7 36  1  0  0  0  0
  8  9  1  0  0  0  0
  8 37  1  0  0  0  0
  8 38  1  0  0  0  0
  9 11  1  0  0  0  0
  9 39  1  0  0  0  0
 10 12  1  0  0  0  0
 10 40  1  0  0  0  0
 11 14  1  0  0  0  0
 11 41  1  0  0  0  0
 11 42  1  0  0  0  0
 12 15  1  0  0  0  0
 12 43  1  0  0  0  0
 12 44  1  0  0  0  0
 14 17  2  0  0  0  0
 14 18  1  0  0  0  0
 15 19  2  0  0  0  0
 15 20  1  0  0  0  0
 16 21  1  0  0  0  0
 17 24  1  0  0  0  0
 17 47  1  0  0  0  0
 18 25  2  0  0  0  0
 18 48  1  0  0  0  0
 19 22  1  0  0  0  0
 19 49  1  0  0  0  0
 20 23  2  0  0  0  0
 20 50  1  0  0  0  0
 21 51  1  0  0  0  0
 21 52  1  0  0  0  0
 22 26  2  0  0  0  0
 22 53  1  0  0  0  0
 23 26  1  0  0  0  0
 23 54  1  0  0  0  0
 24 27  2  0  0  0  0
 24 55  1  0  0  0  0
 25 27  1  0  0  0  0
 25 56  1  0  0  0  0
 26 57  1  0  0  0  0
 27 58  1  0  0  0  0
 28 29  2  0  0  0  0
 28 30  1  0  0  0  0
 29 31  1  0  0  0  0
 29 33  1  0  0  0  0
 30 32  2  0  0  0  0
 30 34  1  0  0  0  0
 31 35  2  0  0  0  0
 31 59  1  0  0  0  0
 32 35  1  0  0  0  0
 32 60  1  0  0  0  0
 33 61  1  0  0  0  0
 33 62  1  0  0  0  0
 33 63  1  0  0  0  0
 34 64  1  0  0  0  0
 34 65  1  0  0  0  0
 34 66  1  0  0  0  0
 35 67  1  0  0  0  0
M  ISO  8  59   2  60   2  61   2  62   2  63   2  64   2  65   2  66   2
M  ISO  1  67   2
M  END
> <PUBCHEM_COMPOUND_CID>
162641253

> <PUBCHEM_CONFORMER_RMSD>
1.4

> <PUBCHEM_CONFORMER_DIVERSEORDER>
1
122
104
99
36
68
106
113
94
23
72
78
5
115
126
20
86
118
73
107
125
84
127
28
74
17
88
120
105
45
112
39
65
121
29
90
49
98
80
52
46
102
71
83
82
41
81
38
61
93
21
43
32
54
116
124
4
119
31
53
16
97
7
59
60
114
111
100
9
55
67
96
110
92
3
69
123
22
64
34
66
91
11
79
89
56
75
85
50
76
14
48
87
103
8
70
108
30
109
12
58
101
13
25
117
2
57
37
62
95
33
44
51
6
19
77
35
47
27
26
40
10
18
63
15
24
42

> <PUBCHEM_MMFF94_PARTIAL_CHARGES>
49
1 -0.43
10 0.3
11 0.14
12 0.14
13 0.78
14 -0.14
15 -0.14
16 0.57
17 -0.15
18 -0.15
19 -0.15
2 -0.57
20 -0.15
21 0.34
22 -0.15
23 -0.15
24 -0.15
25 -0.15
26 -0.15
27 -0.15
28 0.08
29 -0.14
3 -0.57
30 -0.14
31 -0.15
32 -0.15
33 0.14
34 0.14
35 -0.15
4 -0.36
45 0.37
46 0.37
47 0.15
48 0.15
49 0.15
5 -0.73
50 0.15
53 0.15
54 0.15
55 0.15
56 0.15
57 0.15
58 0.15
59 0.15
6 -0.73
60 0.15
67 0.15
7 0.28
9 0.3

> <PUBCHEM_EFFECTIVE_ROTOR_COUNT>
11

> <PUBCHEM_PHARMACOPHORE_FEATURES>
9
1 2 acceptor
1 3 acceptor
1 4 acceptor
1 5 donor
1 6 donor
6 1 5 7 8 9 13 rings
6 14 17 18 24 25 27 rings
6 15 19 20 22 23 26 rings
6 28 29 30 31 32 35 rings

> <PUBCHEM_HEAVY_ATOM_COUNT>
35

> <PUBCHEM_ATOM_DEF_STEREO_COUNT>
3

> <PUBCHEM_ATOM_UDEF_STEREO_COUNT>
0

> <PUBCHEM_BOND_DEF_STEREO_COUNT>
0

> <PUBCHEM_BOND_UDEF_STEREO_COUNT>
0

> <PUBCHEM_ISOTOPIC_ATOM_COUNT>
9

> <PUBCHEM_COMPONENT_COUNT>
1

> <PUBCHEM_CACTVS_TAUTO_COUNT>
-1

> <PUBCHEM_CONFORMER_ID>
09B1B56500000001

> <PUBCHEM_MMFF94_ENERGY>
98.453

> <PUBCHEM_FEATURE_SELFOVERLAP>
45.68

> <PUBCHEM_SHAPE_FINGERPRINT>
10290309 65 18122077656383249664
10439779 11 18335414651674883553
10653451 467 18260822688294121716
10838868 217 18116136943229579741
12107183 9 18119233194607870368
12422481 6 18046619290462263696
12925494 130 17968931036636517001
13165053 371 18339359648404381885
13751561 76 18187080624571241512
13835254 42 17691122639642842798
14295345 954 18261387905356804827
14910700 183 18339070584320504396
15274700 34 17536043499914376931
19246450 95 18193544783256330832
20580484 21 18411134697892304269
20715895 44 18339078319103112032
354706 109 17978204369340070624
4017518 198 18270682082554420118
4144715 1 17752487830808066088
550186 72 16321462662895531316
9981440 41 18118684563731905129

> <PUBCHEM_SHAPE_MULTIPOLES>
686.84
16.18
9.5
1.74
35.71
0.01
0.87
-11.55
-2.6
-24.76
-1.91
1.7
0.79
3.03

> <PUBCHEM_SHAPE_SELFOVERLAP>
1465.414

> <PUBCHEM_SHAPE_VOLUME>
378

> <PUBCHEM_COORDINATE_TYPE>
2
5
10

$$$$
162641254
  -OEChem-07172408123D

 69 71  0     1  0  0  0  0  0999 V2000
   -1.5722   -2.1612   -3.5851 O   0  0  0  0  0  0  0  0  0  0  0  0
    2.3389    1.4226   -0.0676 O   0  0  0  0  0  0  0  0  0  0  0  0
    0.1493   -0.0232    0.5365 O   0  0  0  0  0  0  0  0  0  0  0  0
   -3.2846   -1.1288    1.4021 O   0  0  0  0  0  0  0  0  0  0  0  0
    0.2398   -1.1771   -1.4800 N   0  0  0  0  0  0  0  0  0  0  0  0
   -4.1302   -0.4093   -0.6555 N   0  0  0  0  0  0  0  0  0  0  0  0
   -2.0256   -1.6865   -2.3159 C   0  0  1  0  0  0  0  0  0  0  0  0
   -0.9304   -2.0048   -1.2744 C   0  0  1  0  0  0  0  0  0  0  0  0
   -2.4105   -0.1970   -2.4115 C   0  0  0  0  0  0  0  0  0  0  0  0
   -2.9981    0.3717   -1.1020 C   0  0  1  0  0  0  0  0  0  0  0  0
   -0.5523   -3.4966   -1.2623 C   0  0  0  0  0  0  0  0  0  0  0  0
   -3.4091    1.8427   -1.3008 C   0  0  0  0  0  0  0  0  0  0  0  0
    0.1222   -3.9178    0.0229 C   0  0  0  0  0  0  0  0  0  0  0  0
   -3.5331    2.6057   -0.0030 C   0  0  0  0  0  0  0  0  0  0  0  0
    0.6781   -0.2526   -0.5477 C   0  0  0  0  0  0  0  0  0  0  0  0
   -0.6427   -4.3814    1.0933 C   0  0  0  0  0  0  0  0  0  0  0  0
    1.5102   -3.8434    0.1382 C   0  0  0  0  0  0  0  0  0  0  0  0
   -2.4270    3.2734    0.5226 C   0  0  0  0  0  0  0  0  0  0  0  0
   -4.7546    2.6427    0.6695 C   0  0  0  0  0  0  0  0  0  0  0  0
   -4.1592   -1.0782    0.5469 C   0  0  0  0  0  0  0  0  0  0  0  0
    1.9195    0.4716   -1.0231 C   0  0  0  0  0  0  0  0  0  0  0  0
   -0.0194   -4.7705    2.2790 C   0  0  0  0  0  0  0  0  0  0  0  0
    2.1334   -4.2325    1.3239 C   0  0  0  0  0  0  0  0  0  0  0  0
   -2.5423    3.9781    1.7208 C   0  0  0  0  0  0  0  0  0  0  0  0
   -4.8699    3.3475    1.8677 C   0  0  0  0  0  0  0  0  0  0  0  0
    1.3686   -4.6961    2.3943 C   0  0  0  0  0  0  0  0  0  0  0  0
   -3.7638    4.0152    2.3933 C   0  0  0  0  0  0  0  0  0  0  0  0
    3.6817    1.7147   -0.0204 C   0  0  0  0  0  0  0  0  0  0  0  0
    4.5272    0.9801    0.8108 C   0  0  0  0  0  0  0  0  0  0  0  0
    4.1980    2.7466   -0.8040 C   0  0  0  0  0  0  0  0  0  0  0  0
    5.8892    1.2774    0.8584 C   0  0  0  0  0  0  0  0  0  0  0  0
    5.5600    3.0439   -0.7565 C   0  0  0  0  0  0  0  0  0  0  0  0
    3.9941   -0.1298    1.6559 C   0  0  0  0  0  0  0  0  0  0  0  0
    3.3092    3.5439   -1.7009 C   0  0  0  0  0  0  0  0  0  0  0  0
    6.4056    2.3092    0.0747 C   0  0  0  0  0  0  0  0  0  0  0  0
   -2.9167   -2.2787   -2.0761 H   0  0  0  0  0  0  0  0  0  0  0  0
   -1.3419   -1.7641   -0.2890 H   0  0  0  0  0  0  0  0  0  0  0  0
   -1.5450    0.3958   -2.7328 H   0  0  0  0  0  0  0  0  0  0  0  0
   -3.1483   -0.0879   -3.2184 H   0  0  0  0  0  0  0  0  0  0  0  0
   -2.2257    0.3349   -0.3293 H   0  0  0  0  0  0  0  0  0  0  0  0
    0.0977   -3.7427   -2.1124 H   0  0  0  0  0  0  0  0  0  0  0  0
   -1.4535   -4.1110   -1.3895 H   0  0  0  0  0  0  0  0  0  0  0  0
   -2.6629    2.3574   -1.9211 H   0  0  0  0  0  0  0  0  0  0  0  0
   -4.3519    1.9108   -1.8599 H   0  0  0  0  0  0  0  0  0  0  0  0
    0.7502   -1.2851   -2.3519 H   0  0  0  0  0  0  0  0  0  0  0  0
   -4.9431   -0.4680   -1.2621 H   0  0  0  0  0  0  0  0  0  0  0  0
   -2.2801   -1.9937   -4.2303 H   0  0  0  0  0  0  0  0  0  0  0  0
   -1.7252   -4.4408    1.0167 H   0  0  0  0  0  0  0  0  0  0  0  0
    2.1180   -3.4842   -0.6879 H   0  0  0  0  0  0  0  0  0  0  0  0
   -1.4690    3.2488    0.0099 H   0  0  0  0  0  0  0  0  0  0  0  0
   -5.6243    2.1279    0.2702 H   0  0  0  0  0  0  0  0  0  0  0  0
   -5.1200   -1.6040    0.6730 H   0  0  0  0  0  0  0  0  0  0  0  0
    2.6995   -0.2753   -1.2178 H   0  0  0  0  0  0  0  0  0  0  0  0
    1.6820    0.9868   -1.9605 H   0  0  0  0  0  0  0  0  0  0  0  0
   -0.6150   -5.1304    3.1129 H   0  0  0  0  0  0  0  0  0  0  0  0
    3.2142   -4.1733    1.4140 H   0  0  0  0  0  0  0  0  0  0  0  0
   -1.6808    4.4970    2.1307 H   0  0  0  0  0  0  0  0  0  0  0  0
   -5.8210    3.3765    2.3914 H   0  0  0  0  0  0  0  0  0  0  0  0
    1.8539   -4.9984    3.3177 H   0  0  0  0  0  0  0  0  0  0  0  0
   -3.8535    4.5637    3.3264 H   0  0  0  0  0  0  0  0  0  0  0  0
    6.5614    0.7130    1.4992 H   1  0  0  0  0  0  0  0  0  0  0  0
    5.9777    3.8433   -1.3627 H   1  0  0  0  0  0  0  0  0  0  0  0
    3.7623   -1.0015    1.0358 H   1  0  0  0  0  0  0  0  0  0  0  0
    4.7172   -0.4411    2.4176 H   1  0  0  0  0  0  0  0  0  0  0  0
    3.0890    0.1844    2.1864 H   1  0  0  0  0  0  0  0  0  0  0  0
    3.7812    4.4868   -1.9985 H   1  0  0  0  0  0  0  0  0  0  0  0
    3.0823    2.9775   -2.6094 H   1  0  0  0  0  0  0  0  0  0  0  0
    2.3730    3.8056   -1.1965 H   1  0  0  0  0  0  0  0  0  0  0  0
    7.4663    2.5400    0.1109 H   1  0  0  0  0  0  0  0  0  0  0  0
  1  7  1  0  0  0  0
  1 47  1  0  0  0  0
  2 21  1  0  0  0  0
  2 28  1  0  0  0  0
  3 15  2  0  0  0  0
  4 20  2  0  0  0  0
  5  8  1  0  0  0  0
  5 15  1  0  0  0  0
  5 45  1  0  0  0  0
  6 10  1  0  0  0  0
  6 20  1  0  0  0  0
  6 46  1  0  0  0  0
  7  8  1  0  0  0  0
  7  9  1  0  0  0  0
  7 36  1  0  0  0  0
  8 11  1  0  0  0  0
  8 37  1  0  0  0  0
  9 10  1  0  0  0  0
  9 38  1  0  0  0  0
  9 39  1  0  0  0  0
 10 12  1  0  0  0  0
 10 40  1  0  0  0  0
 11 13  1  0  0  0  0
 11 41  1  0  0  0  0
 11 42  1  0  0  0  0
 12 14  1  0  0  0  0
 12 43  1  0  0  0  0
 12 44  1  0  0  0  0
 13 16  2  0  0  0  0
 13 17  1  0  0  0  0
 14 18  2  0  0  0  0
 14 19  1  0  0  0  0
 15 21  1  0  0  0  0
 16 22  1  0  0  0  0
 16 48  1  0  0  0  0
 17 23  2  0  0  0  0
 17 49  1  0  0  0  0
 18 24  1  0  0  0  0
 18 50  1  0  0  0  0
 19 25  2  0  0  0  0
 19 51  1  0  0  0  0
 20 52  1  0  0  0  0
 21 53  1  0  0  0  0
 21 54  1  0  0  0  0
 22 26  2  0  0  0  0
 22 55  1  0  0  0  0
 23 26  1  0  0  0  0
 23 56  1  0  0  0  0
 24 27  2  0  0  0  0
 24 57  1  0  0  0  0
 25 27  1  0  0  0  0
 25 58  1  0  0  0  0
 26 59  1  0  0  0  0
 27 60  1  0  0  0  0
 28 29  2  0  0  0  0
 28 30  1  0  0  0  0
 29 31  1  0  0  0  0
 29 33  1  0  0  0  0
 30 32  2  0  0  0  0
 30 34  1  0  0  0  0
 31 35  2  0  0  0  0
 31 61  1  0  0  0  0
 32 35  1  0  0  0  0
 32 62  1  0  0  0  0
 33 63  1  0  0  0  0
 33 64  1  0  0  0  0
 33 65  1  0  0  0  0
 34 66  1  0  0  0  0
 34 67  1  0  0  0  0
 34 68  1  0  0  0  0
 35 69  1  0  0  0  0
M  ISO  8  61   2  62   2  63   2  64   2  65   2  66   2  67   2  68   2
M  ISO  1  69   2
M  END
> <PUBCHEM_COMPOUND_CID>
162641254

> <PUBCHEM_CONFORMER_RMSD>
1.2

> <PUBCHEM_CONFORMER_DIVERSEORDER>
1
27
131
9
88
16
72
126
59
116
36
64
120
4
108
57
15
30
132
129
134
29
81
122
145
11
55
75
23
41
127
66
69
90
119
99
61
42
76
38
117
46
113
128
54
56
79
34
21
98
43
33
50
25
83
22
115
49
19
130
121
47
63
107
125
18
71
39
93
140
77
80
13
82
58
48
20
70
12
148
53
100
133
106
62
96
104
92
87
101
32
73
112
110
37
102
89
52
26
137
95
91
103
86
40
138
65
5
35
109
147
94
68
28
17
24
123
10
111
74
85
143
139
97
51
124
67
60
31
105
45
136
114
142
44
144
84
7
118
146
78
141
14
6
2
135
8
3

> <PUBCHEM_MMFF94_PARTIAL_CHARGES>
51
1 -0.68
10 0.3
11 0.14
12 0.14
13 -0.14
14 -0.14
15 0.57
16 -0.15
17 -0.15
18 -0.15
19 -0.15
2 -0.36
20 0.57
21 0.34
22 -0.15
23 -0.15
24 -0.15
25 -0.15
26 -0.15
27 -0.15
28 0.08
29 -0.14
3 -0.57
30 -0.14
31 -0.15
32 -0.15
33 0.14
34 0.14
35 -0.15
4 -0.57
45 0.37
46 0.37
47 0.4
48 0.15
49 0.15
5 -0.73
50 0.15
51 0.15
52 0.06
55 0.15
56 0.15
57 0.15
58 0.15
59 0.15
6 -0.73
60 0.15
61 0.15
62 0.15
69 0.15
7 0.28
8 0.3

> <PUBCHEM_EFFECTIVE_ROTOR_COUNT>
14

> <PUBCHEM_PHARMACOPHORE_FEATURES>
10
1 1 acceptor
1 1 donor
1 2 acceptor
1 3 acceptor
1 4 acceptor
1 5 donor
1 6 donor
6 13 16 17 22 23 26 rings
6 14 18 19 24 25 27 rings
6 28 29 30 31 32 35 rings

> <PUBCHEM_HEAVY_ATOM_COUNT>
35

> <PUBCHEM_ATOM_DEF_STEREO_COUNT>
3

> <PUBCHEM_ATOM_UDEF_STEREO_COUNT>
0

> <PUBCHEM_BOND_DEF_STEREO_COUNT>
0

> <PUBCHEM_BOND_UDEF_STEREO_COUNT>
0

> <PUBCHEM_ISOTOPIC_ATOM_COUNT>
9

> <PUBCHEM_COMPONENT_COUNT>
1

> <PUBCHEM_CACTVS_TAUTO_COUNT>
-1

> <PUBCHEM_CONFORMER_ID>
09B1B56600000001

> <PUBCHEM_MMFF94_ENERGY>
89.1205

> <PUBCHEM_FEATURE_SELFOVERLAP>
50.756

> <PUBCHEM_SHAPE_FINGERPRINT>
12788726 201 18124873709999253446
14294032 229 17917719036827114789
15297060 5 18060426789768874744
15392192 29 18407477766142608646
15448158 6 17106220300442991587
15448158 71 18198626532315367505
16067690 210 17985542505870218140
16112460 7 18261378001911436410
19319366 153 18411142398499238161
21033650 10 18059016210992354932
21792965 25 18265918976291339832
4058900 60 18335419050353501050
4616759 239 17831553725395245744
469060 322 16450375908151558156
50150288 127 17831889071502703624
508180 173 17485682306628184686
5912855 24 17394172462024950438
6700243 42 16983522418023977116

> <PUBCHEM_SHAPE_MULTIPOLES>
686.84
11.36
8.12
2.6
8.64
6.67
0.63
-17.42
-2.91
0.65
-4.62
-1.94
1.2
-4.83

> <PUBCHEM_SHAPE_SELFOVERLAP>
1439.845

> <PUBCHEM_SHAPE_VOLUME>
386

> <PUBCHEM_COORDINATE_TYPE>
2
5
10

$$$$
162641265
  -OEChem-07172408123D

 72 74  0     1  0  0  0  0  0999 V2000
   -1.3036    1.7969   -3.6586 O   0  0  0  0  0  0  0  0  0  0  0  0
    3.0814   -0.0788    0.5561 O   0  0  0  0  0  0  0  0  0  0  0  0
    0.4590    0.4893    0.7780 O   0  0  0  0  0  0  0  0  0  0  0  0
   -3.3578    0.3297    1.0571 O   0  0  0  0  0  0  0  0  0  0  0  0
    0.4211    1.5628   -1.2842 N   0  0  0  0  0  0  0  0  0  0  0  0
   -3.5086   -0.7537   -0.9974 N   0  0  0  0  0  0  0  0  0  0  0  0
   -1.7355    1.2286   -2.4208 C   0  0  1  0  0  0  0  0  0  0  0  0
   -1.5654   -0.3030   -2.4525 C   0  0  0  0  0  0  0  0  0  0  0  0
   -0.9782    1.9354   -1.2750 C   0  0  2  0  0  0  0  0  0  0  0  0
   -2.0975   -1.0074   -1.1859 C   0  0  2  0  0  0  0  0  0  0  0  0
   -1.1439    3.4649   -1.3196 C   0  0  0  0  0  0  0  0  0  0  0  0
   -1.8360   -2.5227   -1.2732 C   0  0  0  0  0  0  0  0  0  0  0  0
   -0.8430    4.1239    0.0066 C   0  0  0  0  0  0  0  0  0  0  0  0
   -2.3289   -3.2815   -0.0638 C   0  0  0  0  0  0  0  0  0  0  0  0
    1.0189    0.8672   -0.2475 C   0  0  0  0  0  0  0  0  0  0  0  0
   -4.0150   -0.1037    0.1144 C   0  0  0  0  0  0  0  0  0  0  0  0
    0.4544    4.5445    0.2987 C   0  0  0  0  0  0  0  0  0  0  0  0
   -1.8635    4.3121    0.9387 C   0  0  0  0  0  0  0  0  0  0  0  0
   -3.6289   -3.7864   -0.0384 C   0  0  0  0  0  0  0  0  0  0  0  0
   -1.4831   -3.4777    1.0281 C   0  0  0  0  0  0  0  0  0  0  0  0
    2.4862    0.6143   -0.5202 C   0  0  0  0  0  0  0  0  0  0  0  0
    0.7314    5.1532    1.5229 C   0  0  0  0  0  0  0  0  0  0  0  0
   -1.5867    4.9208    2.1628 C   0  0  0  0  0  0  0  0  0  0  0  0
   -5.5153    0.0092    0.0724 C   0  0  0  0  0  0  0  0  0  0  0  0
   -4.0832   -4.4875    1.0787 C   0  0  0  0  0  0  0  0  0  0  0  0
   -1.9375   -4.1787    2.1450 C   0  0  0  0  0  0  0  0  0  0  0  0
   -0.2892    5.3413    2.4550 C   0  0  0  0  0  0  0  0  0  0  0  0
   -3.2375   -4.6836    2.1704 C   0  0  0  0  0  0  0  0  0  0  0  0
    4.1523   -0.8905    0.2646 C   0  0  0  0  0  0  0  0  0  0  0  0
    5.4479   -0.3751    0.2977 C   0  0  0  0  0  0  0  0  0  0  0  0
    3.9426   -2.2297   -0.0647 C   0  0  0  0  0  0  0  0  0  0  0  0
    6.5339   -1.1987    0.0016 C   0  0  0  0  0  0  0  0  0  0  0  0
    5.0287   -3.0533   -0.3609 C   0  0  0  0  0  0  0  0  0  0  0  0
    5.6929    1.0560    0.6474 C   0  0  0  0  0  0  0  0  0  0  0  0
    2.5633   -2.8002   -0.1056 C   0  0  0  0  0  0  0  0  0  0  0  0
    6.3243   -2.5378   -0.3277 C   0  0  0  0  0  0  0  0  0  0  0  0
   -2.8016    1.4699   -2.3398 H   0  0  0  0  0  0  0  0  0  0  0  0
   -2.0938   -0.6849   -3.3369 H   0  0  0  0  0  0  0  0  0  0  0  0
   -0.5114   -0.5609   -2.6157 H   0  0  0  0  0  0  0  0  0  0  0  0
   -1.4150    1.5871   -0.3332 H   0  0  0  0  0  0  0  0  0  0  0  0
   -1.5596   -0.6360   -0.3102 H   0  0  0  0  0  0  0  0  0  0  0  0
   -2.1746    3.7201   -1.5996 H   0  0  0  0  0  0  0  0  0  0  0  0
   -0.5067    3.9049   -2.0982 H   0  0  0  0  0  0  0  0  0  0  0  0
   -2.3169   -2.9375   -2.1697 H   0  0  0  0  0  0  0  0  0  0  0  0
   -0.7616   -2.7086   -1.4019 H   0  0  0  0  0  0  0  0  0  0  0  0
    0.9815    1.8338   -2.0871 H   0  0  0  0  0  0  0  0  0  0  0  0
   -4.1487   -1.0720   -1.7195 H   0  0  0  0  0  0  0  0  0  0  0  0
   -0.3684    1.5609   -3.7816 H   0  0  0  0  0  0  0  0  0  0  0  0
    1.2585    4.4045   -0.4188 H   0  0  0  0  0  0  0  0  0  0  0  0
   -2.8777    3.9857    0.7241 H   0  0  0  0  0  0  0  0  0  0  0  0
   -4.2979   -3.6441   -0.8830 H   0  0  0  0  0  0  0  0  0  0  0  0
   -0.4702   -3.0854    1.0216 H   0  0  0  0  0  0  0  0  0  0  0  0
    2.5691    0.0504   -1.4580 H   0  0  0  0  0  0  0  0  0  0  0  0
    2.9869    1.5809   -0.6442 H   0  0  0  0  0  0  0  0  0  0  0  0
    1.7417    5.4803    1.7504 H   0  0  0  0  0  0  0  0  0  0  0  0
   -2.3811    5.0665    2.8889 H   0  0  0  0  0  0  0  0  0  0  0  0
   -5.9599   -0.9790    0.2190 H   1  0  0  0  0  0  0  0  0  0  0  0
   -5.8371    0.4153   -0.8909 H   1  0  0  0  0  0  0  0  0  0  0  0
   -5.8567    0.6788    0.8665 H   1  0  0  0  0  0  0  0  0  0  0  0
   -5.0953   -4.8809    1.0983 H   0  0  0  0  0  0  0  0  0  0  0  0
   -1.2793   -4.3305    2.9956 H   0  0  0  0  0  0  0  0  0  0  0  0
   -0.0735    5.8149    3.4082 H   0  0  0  0  0  0  0  0  0  0  0  0
   -3.5913   -5.2292    3.0402 H   0  0  0  0  0  0  0  0  0  0  0  0
    7.5492   -0.8113    0.0211 H   0  0  0  0  0  0  0  0  0  0  0  0
    4.8821   -4.0983   -0.6209 H   0  0  0  0  0  0  0  0  0  0  0  0
    5.0799    1.3632    1.5013 H   0  0  0  0  0  0  0  0  0  0  0  0
    6.7372    1.2266    0.9313 H   0  0  0  0  0  0  0  0  0  0  0  0
    5.4656    1.6988   -0.2086 H   0  0  0  0  0  0  0  0  0  0  0  0
    2.0222   -2.4278   -0.9811 H   0  0  0  0  0  0  0  0  0  0  0  0
    2.5781   -3.8941   -0.1598 H   0  0  0  0  0  0  0  0  0  0  0  0
    2.0086   -2.5336    0.8001 H   0  0  0  0  0  0  0  0  0  0  0  0
    7.1700   -3.1789   -0.5592 H   0  0  0  0  0  0  0  0  0  0  0  0
  1  7  1  0  0  0  0
  1 48  1  0  0  0  0
  2 21  1  0  0  0  0
  2 29  1  0  0  0  0
  3 15  2  0  0  0  0
  4 16  2  0  0  0  0
  5  9  1  0  0  0  0
  5 15  1  0  0  0  0
  5 46  1  0  0  0  0
  6 10  1  0  0  0  0
  6 16  1  0  0  0  0
  6 47  1  0  0  0  0
  7  8  1  0  0  0  0
  7  9  1  0  0  0  0
  7 37  1  0  0  0  0
  8 10  1  0  0  0  0
  8 38  1  0  0  0  0
  8 39  1  0  0  0  0
  9 11  1  0  0  0  0
  9 40  1  0  0  0  0
 10 12  1  0  0  0  0
 10 41  1  0  0  0  0
 11 13  1  0  0  0  0
 11 42  1  0  0  0  0
 11 43  1  0  0  0  0
 12 14  1  0  0  0  0
 12 44  1  0  0  0  0
 12 45  1  0  0  0  0
 13 17  2  0  0  0  0
 13 18  1  0  0  0  0
 14 19  2  0  0  0  0
 14 20  1  0  0  0  0
 15 21  1  0  0  0  0
 16 24  1  0  0  0  0
 17 22  1  0  0  0  0
 17 49  1  0  0  0  0
 18 23  2  0  0  0  0
 18 50  1  0  0  0  0
 19 25  1  0  0  0  0
 19 51  1  0  0  0  0
 20 26  2  0  0  0  0
 20 52  1  0  0  0  0
 21 53  1  0  0  0  0
 21 54  1  0  0  0  0
 22 27  2  0  0  0  0
 22 55  1  0  0  0  0
 23 27  1  0  0  0  0
 23 56  1  0  0  0  0
 24 57  1  0  0  0  0
 24 58  1  0  0  0  0
 24 59  1  0  0  0  0
 25 28  2  0  0  0  0
 25 60  1  0  0  0  0
 26 28  1  0  0  0  0
 26 61  1  0  0  0  0
 27 62  1  0  0  0  0
 28 63  1  0  0  0  0
 29 30  2  0  0  0  0
 29 31  1  0  0  0  0
 30 32  1  0  0  0  0
 30 34  1  0  0  0  0
 31 33  2  0  0  0  0
 31 35  1  0  0  0  0
 32 36  2  0  0  0  0
 32 64  1  0  0  0  0
 33 36  1  0  0  0  0
 33 65  1  0  0  0  0
 34 66  1  0  0  0  0
 34 67  1  0  0  0  0
 34 68  1  0  0  0  0
 35 69  1  0  0  0  0
 35 70  1  0  0  0  0
 35 71  1  0  0  0  0
 36 72  1  0  0  0  0
M  ISO  3  57   2  58   2  59   2
M  END
> <PUBCHEM_COMPOUND_CID>
162641265

> <PUBCHEM_CONFORMER_RMSD>
1.2

> <PUBCHEM_CONFORMER_DIVERSEORDER>
1
77
16
163
131
101
89
113
124
186
45
27
121
96
182
14
104
106
125
139
164
95
127
88
25
19
93
170
185
134
47
28
123
60
39
37
180
32
144
59
171
175
102
136
149
66
116
61
6
154
155
140
43
83
122
38
91
67
126
34
178
151
184
51
160
132
161
188
62
24
147
183
82
20
168
2
148
146
15
174
120
55
40
167
118
165
169
31
81
187
79
158
53
179
85
90
21
141
65
110
75
152
76
99
156
69
70
98
137
72
11
166
142
71
64
18
100
9
135
107
129
78
138
117
73
103
74
177
48
36
42
63
172
52
108
29
80
68
50
111
109
17
105
23
128
57
159
84
143
10
12
181
54
130
30
58
94
145
3
44
114
56
157
162
49
115
13
4
119
46
35
92
153
150
173
22
133
86
97
7
41
176
33
112
26
87
8
5

> <PUBCHEM_MMFF94_PARTIAL_CHARGES>
51
1 -0.68
10 0.3
11 0.14
12 0.14
13 -0.14
14 -0.14
15 0.57
16 0.57
17 -0.15
18 -0.15
19 -0.15
2 -0.36
20 -0.15
21 0.34
22 -0.15
23 -0.15
24 0.06
25 -0.15
26 -0.15
27 -0.15
28 -0.15
29 0.08
3 -0.57
30 -0.14
31 -0.14
32 -0.15
33 -0.15
34 0.14
35 0.14
36 -0.15
4 -0.57
46 0.37
47 0.37
48 0.4
49 0.15
5 -0.73
50 0.15
51 0.15
52 0.15
55 0.15
56 0.15
6 -0.73
60 0.15
61 0.15
62 0.15
63 0.15
64 0.15
65 0.15
7 0.28
72 0.15
9 0.3

> <PUBCHEM_EFFECTIVE_ROTOR_COUNT>
14

> <PUBCHEM_PHARMACOPHORE_FEATURES>
10
1 1 acceptor
1 1 donor
1 2 acceptor
1 3 acceptor
1 4 acceptor
1 5 donor
1 6 donor
6 13 17 18 22 23 27 rings
6 14 19 20 25 26 28 rings
6 29 30 31 32 33 36 rings

> <PUBCHEM_HEAVY_ATOM_COUNT>
36

> <PUBCHEM_ATOM_DEF_STEREO_COUNT>
3

> <PUBCHEM_ATOM_UDEF_STEREO_COUNT>
0

> <PUBCHEM_BOND_DEF_STEREO_COUNT>
0

> <PUBCHEM_BOND_UDEF_STEREO_COUNT>
0

> <PUBCHEM_ISOTOPIC_ATOM_COUNT>
3

> <PUBCHEM_COMPONENT_COUNT>
1

> <PUBCHEM_CACTVS_TAUTO_COUNT>
-1

> <PUBCHEM_CONFORMER_ID>
09B1B57100000001

> <PUBCHEM_MMFF94_ENERGY>
91.942

> <PUBCHEM_FEATURE_SELFOVERLAP>
50.756

> <PUBCHEM_SHAPE_FINGERPRINT>
11756154 5 18408599236725391946
12633046 712 18266737068402342765
12788726 201 18266732498314715306
13383668 362 17901957658234281707
14295345 954 18049435135287021811
14394314 77 18341615876328849409
14400156 162 18118973481586655963
14705955 166 18126568916548466982
14856354 85 18343028778692517822
15361156 5 18412265051822119262
17974551 9 18193841676990930189
1979834 28 16890329019449995747
22889206 1 17910389820675021812
24180151 46 18120951516432992689
3886686 26 18335706100382572791
437815 12 18408878534575423685
463206 1 18334296491282822739
469060 322 16733838458135018021
50150288 127 17197121965214014241
563151 40 17547032735611813862
57527306 92 17774713166015906825
57527452 28 17750809757490356065
6004065 56 18341602759672469359
6371380 46 18335689551873627069
9896288 288 17912366420485589785

> <PUBCHEM_SHAPE_MULTIPOLES>
707.42
11.18
9.18
2.29
18.93
7.22
-0.8
-13.17
1.26
-7.09
7.08
-2.38
1.36
2.06

> <PUBCHEM_SHAPE_SELFOVERLAP>
1480.867

> <PUBCHEM_SHAPE_VOLUME>
398.7

> <PUBCHEM_COORDINATE_TYPE>
2
5
10

$$$$
162641267
  -OEChem-07172408123D

 72 74  0     1  0  0  0  0  0999 V2000
   -1.3036    1.7969   -3.6586 O   0  0  0  0  0  0  0  0  0  0  0  0
    3.0814   -0.0788    0.5561 O   0  0  0  0  0  0  0  0  0  0  0  0
    0.4590    0.4893    0.7780 O   0  0  0  0  0  0  0  0  0  0  0  0
   -3.3578    0.3297    1.0571 O   0  0  0  0  0  0  0  0  0  0  0  0
    0.4211    1.5628   -1.2842 N   0  0  0  0  0  0  0  0  0  0  0  0
   -3.5086   -0.7537   -0.9974 N   0  0  0  0  0  0  0  0  0  0  0  0
   -1.7355    1.2286   -2.4208 C   0  0  1  0  0  0  0  0  0  0  0  0
   -1.5654   -0.3030   -2.4525 C   0  0  0  0  0  0  0  0  0  0  0  0
   -0.9782    1.9354   -1.2750 C   0  0  2  0  0  0  0  0  0  0  0  0
   -2.0975   -1.0074   -1.1859 C   0  0  2  0  0  0  0  0  0  0  0  0
   -1.1439    3.4649   -1.3196 C   0  0  0  0  0  0  0  0  0  0  0  0
   -1.8360   -2.5227   -1.2732 C   0  0  0  0  0  0  0  0  0  0  0  0
   -0.8430    4.1239    0.0066 C   0  0  0  0  0  0  0  0  0  0  0  0
   -2.3289   -3.2815   -0.0638 C   0  0  0  0  0  0  0  0  0  0  0  0
    1.0189    0.8672   -0.2475 C   0  0  0  0  0  0  0  0  0  0  0  0
   -4.0150   -0.1037    0.1144 C   0  0  0  0  0  0  0  0  0  0  0  0
    0.4544    4.5445    0.2987 C   0  0  0  0  0  0  0  0  0  0  0  0
   -1.8635    4.3121    0.9387 C   0  0  0  0  0  0  0  0  0  0  0  0
   -3.6289   -3.7864   -0.0384 C   0  0  0  0  0  0  0  0  0  0  0  0
   -1.4831   -3.4777    1.0281 C   0  0  0  0  0  0  0  0  0  0  0  0
    2.4862    0.6143   -0.5202 C   0  0  0  0  0  0  0  0  0  0  0  0
    0.7314    5.1532    1.5229 C   0  0  0  0  0  0  0  0  0  0  0  0
   -1.5867    4.9208    2.1628 C   0  0  0  0  0  0  0  0  0  0  0  0
   -5.5153    0.0092    0.0724 C   0  0  0  0  0  0  0  0  0  0  0  0
   -4.0832   -4.4875    1.0787 C   0  0  0  0  0  0  0  0  0  0  0  0
   -1.9375   -4.1787    2.1450 C   0  0  0  0  0  0  0  0  0  0  0  0
   -0.2892    5.3413    2.4550 C   0  0  0  0  0  0  0  0  0  0  0  0
   -3.2375   -4.6836    2.1704 C   0  0  0  0  0  0  0  0  0  0  0  0
    4.1523   -0.8905    0.2646 C   0  0  0  0  0  0  0  0  0  0  0  0
    5.4479   -0.3751    0.2977 C   0  0  0  0  0  0  0  0  0  0  0  0
    3.9426   -2.2297   -0.0647 C   0  0  0  0  0  0  0  0  0  0  0  0
    6.5339   -1.1987    0.0016 C   0  0  0  0  0  0  0  0  0  0  0  0
    5.0287   -3.0533   -0.3609 C   0  0  0  0  0  0  0  0  0  0  0  0
    5.6929    1.0559    0.6474 C   0  0  0  0  0  0  0  0  0  0  0  0
    2.5633   -2.8002   -0.1056 C   0  0  0  0  0  0  0  0  0  0  0  0
    6.3243   -2.5378   -0.3277 C   0  0  0  0  0  0  0  0  0  0  0  0
   -2.8015    1.4699   -2.3398 H   0  0  0  0  0  0  0  0  0  0  0  0
   -2.0938   -0.6849   -3.3369 H   0  0  0  0  0  0  0  0  0  0  0  0
   -0.5114   -0.5609   -2.6157 H   0  0  0  0  0  0  0  0  0  0  0  0
   -1.4150    1.5871   -0.3332 H   0  0  0  0  0  0  0  0  0  0  0  0
   -1.5596   -0.6360   -0.3102 H   0  0  0  0  0  0  0  0  0  0  0  0
   -2.1746    3.7201   -1.5996 H   0  0  0  0  0  0  0  0  0  0  0  0
   -0.5067    3.9049   -2.0982 H   0  0  0  0  0  0  0  0  0  0  0  0
   -2.3169   -2.9375   -2.1697 H   0  0  0  0  0  0  0  0  0  0  0  0
   -0.7616   -2.7086   -1.4019 H   0  0  0  0  0  0  0  0  0  0  0  0
    0.9815    1.8338   -2.0871 H   0  0  0  0  0  0  0  0  0  0  0  0
   -4.1487   -1.0720   -1.7195 H   0  0  0  0  0  0  0  0  0  0  0  0
   -0.3684    1.5609   -3.7816 H   0  0  0  0  0  0  0  0  0  0  0  0
    1.2585    4.4045   -0.4188 H   0  0  0  0  0  0  0  0  0  0  0  0
   -2.8777    3.9857    0.7241 H   0  0  0  0  0  0  0  0  0  0  0  0
   -4.2979   -3.6441   -0.8830 H   0  0  0  0  0  0  0  0  0  0  0  0
   -0.4702   -3.0854    1.0216 H   0  0  0  0  0  0  0  0  0  0  0  0
    2.5691    0.0504   -1.4580 H   0  0  0  0  0  0  0  0  0  0  0  0
    2.9869    1.5809   -0.6442 H   0  0  0  0  0  0  0  0  0  0  0  0
    1.7417    5.4803    1.7504 H   0  0  0  0  0  0  0  0  0  0  0  0
   -2.3811    5.0665    2.8889 H   0  0  0  0  0  0  0  0  0  0  0  0
   -5.9599   -0.9790    0.2190 H   1  0  0  0  0  0  0  0  0  0  0  0
   -5.8371    0.4153   -0.8909 H   1  0  0  0  0  0  0  0  0  0  0  0
   -5.8567    0.6789    0.8665 H   1  0  0  0  0  0  0  0  0  0  0  0
   -5.0953   -4.8809    1.0983 H   0  0  0  0  0  0  0  0  0  0  0  0
   -1.2793   -4.3305    2.9956 H   0  0  0  0  0  0  0  0  0  0  0  0
   -0.0735    5.8149    3.4082 H   0  0  0  0  0  0  0  0  0  0  0  0
   -3.5913   -5.2292    3.0402 H   0  0  0  0  0  0  0  0  0  0  0  0
    7.5492   -0.8113    0.0211 H   0  0  0  0  0  0  0  0  0  0  0  0
    4.8821   -4.0983   -0.6209 H   0  0  0  0  0  0  0  0  0  0  0  0
    5.0799    1.3632    1.5013 H   1  0  0  0  0  0  0  0  0  0  0  0
    6.7372    1.2266    0.9313 H   1  0  0  0  0  0  0  0  0  0  0  0
    5.4656    1.6988   -0.2086 H   1  0  0  0  0  0  0  0  0  0  0  0
    2.0086   -2.5336    0.8001 H   1  0  0  0  0  0  0  0  0  0  0  0
    2.0222   -2.4278   -0.9811 H   1  0  0  0  0  0  0  0  0  0  0  0
    2.5781   -3.8941   -0.1598 H   1  0  0  0  0  0  0  0  0  0  0  0
    7.1700   -3.1789   -0.5592 H   0  0  0  0  0  0  0  0  0  0  0  0
  1  7  1  0  0  0  0
  1 48  1  0  0  0  0
  2 21  1  0  0  0  0
  2 29  1  0  0  0  0
  3 15  2  0  0  0  0
  4 16  2  0  0  0  0
  5  9  1  0  0  0  0
  5 15  1  0  0  0  0
  5 46  1  0  0  0  0
  6 10  1  0  0  0  0
  6 16  1  0  0  0  0
  6 47  1  0  0  0  0
  7  8  1  0  0  0  0
  7  9  1  0  0  0  0
  7 37  1  0  0  0  0
  8 10  1  0  0  0  0
  8 38  1  0  0  0  0
  8 39  1  0  0  0  0
  9 11  1  0  0  0  0
  9 40  1  0  0  0  0
 10 12  1  0  0  0  0
 10 41  1  0  0  0  0
 11 13  1  0  0  0  0
 11 42  1  0  0  0  0
 11 43  1  0  0  0  0
 12 14  1  0  0  0  0
 12 44  1  0  0  0  0
 12 45  1  0  0  0  0
 13 17  2  0  0  0  0
 13 18  1  0  0  0  0
 14 19  2  0  0  0  0
 14 20  1  0  0  0  0
 15 21  1  0  0  0  0
 16 24  1  0  0  0  0
 17 22  1  0  0  0  0
 17 49  1  0  0  0  0
 18 23  2  0  0  0  0
 18 50  1  0  0  0  0
 19 25  1  0  0  0  0
 19 51  1  0  0  0  0
 20 26  2  0  0  0  0
 20 52  1  0  0  0  0
 21 53  1  0  0  0  0
 21 54  1  0  0  0  0
 22 27  2  0  0  0  0
 22 55  1  0  0  0  0
 23 27  1  0  0  0  0
 23 56  1  0  0  0  0
 24 57  1  0  0  0  0
 24 58  1  0  0  0  0
 24 59  1  0  0  0  0
 25 28  2  0  0  0  0
 25 60  1  0  0  0  0
 26 28  1  0  0  0  0
 26 61  1  0  0  0  0
 27 62  1  0  0  0  0
 28 63  1  0  0  0  0
 29 30  2  0  0  0  0
 29 31  1  0  0  0  0
 30 32  1  0  0  0  0
 30 34  1  0  0  0  0
 31 33  2  0  0  0  0
 31 35  1  0  0  0  0
 32 36  2  0  0  0  0
 32 64  1  0  0  0  0
 33 36  1  0  0  0  0
 33 65  1  0  0  0  0
 34 66  1  0  0  0  0
 34 67  1  0  0  0  0
 34 68  1  0  0  0  0
 35 69  1  0  0  0  0
 35 70  1  0  0  0  0
 35 71  1  0  0  0  0
 36 72  1  0  0  0  0
M  ISO  8  57   2  58   2  59   2  66   2  67   2  68   2  69   2  70   2
M  ISO  1  71   2
M  END
> <PUBCHEM_COMPOUND_CID>
162641267

> <PUBCHEM_CONFORMER_RMSD>
1.2

> <PUBCHEM_CONFORMER_DIVERSEORDER>
1
187
93
47
182
147
188
114
25
68
185
155
109
37
40
6
96
101
124
121
151
81
134
178
186
180
154
102
184
116
95
161
45
100
158
24
144
164
39
171
106
38
129
83
75
148
16
136
125
132
51
175
20
43
90
139
76
141
127
113
89
163
77
79
160
122
88
19
110
118
27
84
62
14
170
52
120
179
2
98
104
149
67
31
117
53
32
169
60
69
91
42
21
99
85
72
65
55
34
172
146
156
181
70
166
15
183
9
152
57
167
61
145
137
165
126
12
168
30
82
18
135
105
28
11
111
74
58
177
107
3
29
103
130
138
73
63
140
54
142
66
78
131
4
50
36
56
17
159
13
143
71
59
35
49
108
153
128
44
123
80
46
157
174
115
22
112
162
94
92
23
150
10
41
86
48
119
173
7
64
133
87
97
176
33
8
26
5

> <PUBCHEM_MMFF94_PARTIAL_CHARGES>
51
1 -0.68
10 0.3
11 0.14
12 0.14
13 -0.14
14 -0.14
15 0.57
16 0.57
17 -0.15
18 -0.15
19 -0.15
2 -0.36
20 -0.15
21 0.34
22 -0.15
23 -0.15
24 0.06
25 -0.15
26 -0.15
27 -0.15
28 -0.15
29 0.08
3 -0.57
30 -0.14
31 -0.14
32 -0.15
33 -0.15
34 0.14
35 0.14
36 -0.15
4 -0.57
46 0.37
47 0.37
48 0.4
49 0.15
5 -0.73
50 0.15
51 0.15
52 0.15
55 0.15
56 0.15
6 -0.73
60 0.15
61 0.15
62 0.15
63 0.15
64 0.15
65 0.15
7 0.28
72 0.15
9 0.3

> <PUBCHEM_EFFECTIVE_ROTOR_COUNT>
14

> <PUBCHEM_PHARMACOPHORE_FEATURES>
10
1 1 acceptor
1 1 donor
1 2 acceptor
1 3 acceptor
1 4 acceptor
1 5 donor
1 6 donor
6 13 17 18 22 23 27 rings
6 14 19 20 25 26 28 rings
6 29 30 31 32 33 36 rings

> <PUBCHEM_HEAVY_ATOM_COUNT>
36

> <PUBCHEM_ATOM_DEF_STEREO_COUNT>
3

> <PUBCHEM_ATOM_UDEF_STEREO_COUNT>
0

> <PUBCHEM_BOND_DEF_STEREO_COUNT>
0

> <PUBCHEM_BOND_UDEF_STEREO_COUNT>
0

> <PUBCHEM_ISOTOPIC_ATOM_COUNT>
9

> <PUBCHEM_COMPONENT_COUNT>
1

> <PUBCHEM_CACTVS_TAUTO_COUNT>
-1

> <PUBCHEM_CONFORMER_ID>
09B1B57300000001

> <PUBCHEM_MMFF94_ENERGY>
91.9427

> <PUBCHEM_FEATURE_SELFOVERLAP>
50.756

> <PUBCHEM_SHAPE_FINGERPRINT>
10439779 11 18194956577065041426
10653451 467 17831285465747353338
12788726 201 18267013964580250002
13383668 362 17973456678964497875
13947930 73 17097237110603906467
140371 6 18408611352886032780
14295345 954 18048873289076866107
14394314 77 18342741789183981921
14705955 166 18197500614900653590
15064986 96 17917160458665540199
15361156 5 18411702101895065190
15968369 153 18202273706968082226
16112460 7 17763174740417027466
17974551 9 18193841676985642429
4073 2 18335139847341345106
463206 1 18335703870450637842
50150288 127 17270026204564147705
50677037 204 18342178856125009017
6004065 56 18340477980609659431

> <PUBCHEM_SHAPE_MULTIPOLES>
707.42
11.18
9.18
2.29
18.93
7.22
-0.8
-13.17
1.26
-7.09
7.08
-2.38
1.36
2.06

> <PUBCHEM_SHAPE_SELFOVERLAP>
1480.867

> <PUBCHEM_SHAPE_VOLUME>
398.7

> <PUBCHEM_COORDINATE_TYPE>
2
5
10

$$$$
17755107
  -OEChem-07172408123D

 72 74  0     1  0  0  0  0  0999 V2000
   -2.2126   -2.9741    0.3969 O   0  0  0  0  0  0  0  0  0  0  0  0
    1.0135    0.4551   -2.7072 O   0  0  0  0  0  0  0  0  0  0  0  0
    1.1691    2.0889    1.9744 O   0  0  0  0  0  0  0  0  0  0  0  0
    2.0848    2.0892   -0.1643 N   0  0  0  0  0  0  0  0  0  0  0  0
    0.3753   -0.3955   -0.6446 N   0  0  0  0  0  0  0  0  0  0  0  0
    3.4227    2.3409    1.7692 N   0  0  0  0  0  0  0  0  0  0  0  0
   -3.9420   -2.9928   -1.8769 N   0  0  0  0  0  0  0  0  0  0  0  0
    0.7959    1.9782   -0.8318 C   0  0  1  0  0  0  0  0  0  0  0  0
    0.2847   -1.7844   -1.0420 C   0  0  2  0  0  0  0  0  0  0  0  0
   -1.1301   -2.1041   -1.5720 C   0  0  0  0  0  0  0  0  0  0  0  0
    0.5185    3.1398   -1.8096 C   0  0  0  0  0  0  0  0  0  0  0  0
   -2.2416   -1.8893   -0.5287 C   0  0  1  0  0  0  0  0  0  0  0  0
    0.7359    0.6164   -1.5205 C   0  0  0  0  0  0  0  0  0  0  0  0
   -3.6526   -1.7417   -1.1529 C   0  0  2  0  0  0  0  0  0  0  0  0
    3.2539    2.2677   -1.0257 C   0  0  0  0  0  0  0  0  0  0  0  0
    0.6688   -2.6734    0.1569 C   0  0  0  0  0  0  0  0  0  0  0  0
    4.5321    1.8236   -0.3382 C   0  0  0  0  0  0  0  0  0  0  0  0
    2.1531    2.1718    1.2338 C   0  0  0  0  0  0  0  0  0  0  0  0
   -0.8502    3.0383   -2.4912 C   0  0  0  0  0  0  0  0  0  0  0  0
    0.6496    4.4942   -1.1062 C   0  0  0  0  0  0  0  0  0  0  0  0
    4.6295    2.5386    0.9918 C   0  0  0  0  0  0  0  0  0  0  0  0
   -4.8190   -1.5255   -0.1620 C   0  0  0  0  0  0  0  0  0  0  0  0
    2.1484   -2.7272    0.4501 C   0  0  0  0  0  0  0  0  0  0  0  0
   -4.7863   -0.2395    0.6258 C   0  0  0  0  0  0  0  0  0  0  0  0
    2.9443   -3.7005   -0.1540 C   0  0  0  0  0  0  0  0  0  0  0  0
    2.7201   -1.8033    1.3252 C   0  0  0  0  0  0  0  0  0  0  0  0
   -4.1346   -0.1928    1.8583 C   0  0  0  0  0  0  0  0  0  0  0  0
   -5.4074    0.9034    0.1217 C   0  0  0  0  0  0  0  0  0  0  0  0
    4.3116   -3.7503    0.1169 C   0  0  0  0  0  0  0  0  0  0  0  0
    4.0875   -1.8531    1.5959 C   0  0  0  0  0  0  0  0  0  0  0  0
    4.8833   -2.8266    0.9917 C   0  0  0  0  0  0  0  0  0  0  0  0
   -4.1042    0.9963    2.5866 C   0  0  0  0  0  0  0  0  0  0  0  0
   -5.3768    2.0926    0.8501 C   0  0  0  0  0  0  0  0  0  0  0  0
   -4.7251    2.1390    2.0827 C   0  0  0  0  0  0  0  0  0  0  0  0
   -0.0019    1.9957   -0.0776 H   0  0  0  0  0  0  0  0  0  0  0  0
    0.9915   -1.9534   -1.8645 H   0  0  0  0  0  0  0  0  0  0  0  0
   -1.1329   -3.1422   -1.9269 H   0  0  0  0  0  0  0  0  0  0  0  0
   -1.3209   -1.4582   -2.4386 H   0  0  0  0  0  0  0  0  0  0  0  0
    1.2627    3.1236   -2.6167 H   0  0  0  0  0  0  0  0  0  0  0  0
   -2.0357   -0.9793    0.0421 H   0  0  0  0  0  0  0  0  0  0  0  0
   -3.6400   -0.9134   -1.8722 H   0  0  0  0  0  0  0  0  0  0  0  0
    0.1302   -0.1536    0.3113 H   0  0  0  0  0  0  0  0  0  0  0  0
    3.3295    3.3267   -1.2929 H   0  0  0  0  0  0  0  0  0  0  0  0
    3.1365    1.6923   -1.9484 H   0  0  0  0  0  0  0  0  0  0  0  0
    0.1503   -2.3522    1.0699 H   0  0  0  0  0  0  0  0  0  0  0  0
    0.3341   -3.7029   -0.0295 H   0  0  0  0  0  0  0  0  0  0  0  0
    4.5052    0.7392   -0.1774 H   0  0  0  0  0  0  0  0  0  0  0  0
    5.4044    2.0451   -0.9615 H   0  0  0  0  0  0  0  0  0  0  0  0
   -0.9405    2.1294   -3.0928 H   0  0  0  0  0  0  0  0  0  0  0  0
   -1.0139    3.8891   -3.1616 H   0  0  0  0  0  0  0  0  0  0  0  0
   -1.6571    3.0342   -1.7502 H   0  0  0  0  0  0  0  0  0  0  0  0
    0.4497    5.3122   -1.8073 H   0  0  0  0  0  0  0  0  0  0  0  0
    1.6473    4.6641   -0.6943 H   0  0  0  0  0  0  0  0  0  0  0  0
   -0.0705    4.5781   -0.2845 H   0  0  0  0  0  0  0  0  0  0  0  0
    4.7570    3.6176    0.8546 H   0  0  0  0  0  0  0  0  0  0  0  0
    5.4732    2.1634    1.5790 H   0  0  0  0  0  0  0  0  0  0  0  0
   -5.7734   -1.5588   -0.7073 H   0  0  0  0  0  0  0  0  0  0  0  0
   -4.8724   -2.3662    0.5443 H   0  0  0  0  0  0  0  0  0  0  0  0
    3.4970    2.4164    2.7790 H   0  0  0  0  0  0  0  0  0  0  0  0
   -3.2861   -3.1063   -2.6482 H   0  0  0  0  0  0  0  0  0  0  0  0
   -4.8650   -2.9333   -2.3059 H   0  0  0  0  0  0  0  0  0  0  0  0
   -2.4680   -3.7792   -0.0850 H   0  0  0  0  0  0  0  0  0  0  0  0
    2.5113   -4.4240   -0.8397 H   0  0  0  0  0  0  0  0  0  0  0  0
    2.1118   -1.0408    1.8038 H   0  0  0  0  0  0  0  0  0  0  0  0
   -3.6480   -1.0760    2.2634 H   0  0  0  0  0  0  0  0  0  0  0  0
   -5.9159    0.8806   -0.8385 H   0  0  0  0  0  0  0  0  0  0  0  0
    4.9314   -4.5075   -0.3543 H   0  0  0  0  0  0  0  0  0  0  0  0
    4.5327   -1.1325    2.2758 H   0  0  0  0  0  0  0  0  0  0  0  0
    5.9482   -2.8645    1.2019 H   0  0  0  0  0  0  0  0  0  0  0  0
   -3.5967    1.0325    3.5462 H   0  0  0  0  0  0  0  0  0  0  0  0
   -5.8594    2.9827    0.4574 H   0  0  0  0  0  0  0  0  0  0  0  0
   -4.7010    3.0650    2.6496 H   0  0  0  0  0  0  0  0  0  0  0  0
  1 12  1  0  0  0  0
  1 62  1  0  0  0  0
  2 13  2  0  0  0  0
  3 18  2  0  0  0  0
  4  8  1  0  0  0  0
  4 15  1  0  0  0  0
  4 18  1  0  0  0  0
  5  9  1  0  0  0  0
  5 13  1  0  0  0  0
  5 42  1  0  0  0  0
  6 18  1  0  0  0  0
  6 21  1  0  0  0  0
  6 59  1  0  0  0  0
  7 14  1  0  0  0  0
  7 60  1  0  0  0  0
  7 61  1  0  0  0  0
  8 11  1  0  0  0  0
  8 13  1  0  0  0  0
  8 35  1  0  0  0  0
  9 10  1  0  0  0  0
  9 16  1  0  0  0  0
  9 36  1  0  0  0  0
 10 12  1  0  0  0  0
 10 37  1  0  0  0  0
 10 38  1  0  0  0  0
 11 19  1  0  0  0  0
 11 20  1  0  0  0  0
 11 39  1  0  0  0  0
 12 14  1  0  0  0  0
 12 40  1  0  0  0  0
 14 22  1  0  0  0  0
 14 41  1  0  0  0  0
 15 17  1  0  0  0  0
 15 43  1  0  0  0  0
 15 44  1  0  0  0  0
 16 23  1  0  0  0  0
 16 45  1  0  0  0  0
 16 46  1  0  0  0  0
 17 21  1  0  0  0  0
 17 47  1  0  0  0  0
 17 48  1  0  0  0  0
 19 49  1  0  0  0  0
 19 50  1  0  0  0  0
 19 51  1  0  0  0  0
 20 52  1  0  0  0  0
 20 53  1  0  0  0  0
 20 54  1  0  0  0  0
 21 55  1  0  0  0  0
 21 56  1  0  0  0  0
 22 24  1  0  0  0  0
 22 57  1  0  0  0  0
 22 58  1  0  0  0  0
 23 25  2  0  0  0  0
 23 26  1  0  0  0  0
 24 27  2  0  0  0  0
 24 28  1  0  0  0  0
 25 29  1  0  0  0  0
 25 63  1  0  0  0  0
 26 30  2  0  0  0  0
 26 64  1  0  0  0  0
 27 32  1  0  0  0  0
 27 65  1  0  0  0  0
 28 33  2  0  0  0  0
 28 66  1  0  0  0  0
 29 31  2  0  0  0  0
 29 67  1  0  0  0  0
 30 31  1  0  0  0  0
 30 68  1  0  0  0  0
 31 69  1  0  0  0  0
 32 34  2  0  0  0  0
 32 70  1  0  0  0  0
 33 34  1  0  0  0  0
 33 71  1  0  0  0  0
 34 72  1  0  0  0  0
M  END
> <PUBCHEM_COMPOUND_CID>
17755107

> <PUBCHEM_CONFORMER_RMSD>
1.2

> <PUBCHEM_CONFORMER_DIVERSEORDER>
1
185
178
281
175
89
254
118
153
14
170
236
184
94
196
9
52
157
233
98
228
111
39
154
114
245
199
105
291
95
216
68
152
46
165
177
282
57
257
158
246
241
91
13
219
30
84
273
106
137
226
232
217
230
48
283
262
108
249
74
258
112
287
221
270
280
239
31
134
144
82
201
44
122
191
235
83
202
231
54
90
180
85
29
63
206
268
56
272
260
42
115
172
73
267
59
17
60
253
277
176
200
164
149
156
256
127
209
284
151
43
143
116
285
41
72
187
252
250
174
6
261
212
136
66
11
55
93
247
107
214
183
203
4
222
36
140
12
69
38
182
259
265
28
244
80
204
88
195
218
251
159
194
100
160
8
135
266
86
264
37
148
109
129
147
263
193
293
26
275
3
141
35
24
102
113
238
186
128
190
34
50
45
168
130
279
213
53
62
70
5
220
208
242
32
171
40
289
120
167
78
181
166
278
19
23
215
97
292
274
25
77
126
92
161
117
7
179
124
269
138
169
99
248
110
96
290
133
75
71
33
61
155
27
227
243
162
271
188
15
189
211
123
173
20
192
51
225
288
205
58
234
197
18
132
286
76
49
142
125
198
210
207
87
81
10
240
145
21
237
163
121
101
146
255
47
2
103
65
229
79
224
16
131
150
64
119
67
223
22
104
276
139

> <PUBCHEM_MMFF94_PARTIAL_CHARGES>
44
1 -0.68
12 0.28
13 0.57
14 0.27
15 0.3
16 0.14
18 0.69
2 -0.57
21 0.3
22 0.14
23 -0.14
24 -0.14
25 -0.15
26 -0.15
27 -0.15
28 -0.15
29 -0.15
3 -0.57
30 -0.15
31 -0.15
32 -0.15
33 -0.15
34 -0.15
4 -0.66
42 0.37
5 -0.73
59 0.37
6 -0.73
60 0.36
61 0.36
62 0.4
63 0.15
64 0.15
65 0.15
66 0.15
67 0.15
68 0.15
69 0.15
7 -0.99
70 0.15
71 0.15
72 0.15
8 0.36
9 0.3

> <PUBCHEM_EFFECTIVE_ROTOR_COUNT>
13

> <PUBCHEM_PHARMACOPHORE_FEATURES>
12
1 1 acceptor
1 1 donor
1 2 acceptor
1 3 acceptor
1 5 donor
1 6 donor
1 7 cation
1 7 donor
3 11 19 20 hydrophobe
6 23 25 26 29 30 31 rings
6 24 27 28 32 33 34 rings
6 4 6 15 17 18 21 rings

> <PUBCHEM_HEAVY_ATOM_COUNT>
34

> <PUBCHEM_ATOM_DEF_STEREO_COUNT>
4

> <PUBCHEM_ATOM_UDEF_STEREO_COUNT>
0

> <PUBCHEM_BOND_DEF_STEREO_COUNT>
0

> <PUBCHEM_BOND_UDEF_STEREO_COUNT>
0

> <PUBCHEM_ISOTOPIC_ATOM_COUNT>
0

> <PUBCHEM_COMPONENT_COUNT>
1

> <PUBCHEM_CACTVS_TAUTO_COUNT>
4

> <PUBCHEM_CONFORMER_ID>
010EEBE300000001

> <PUBCHEM_MMFF94_ENERGY>
73.8801

> <PUBCHEM_FEATURE_SELFOVERLAP>
60.899

> <PUBCHEM_SHAPE_FINGERPRINT>
10010297 198 18260837024436150220
10674148 151 18200038469255393020
10764073 3 17915456091098042836
10838868 217 17906166253163413225
11513181 2 17917711335449847206
12156800 1 17483985708515081526
12422481 6 18338513032470391769
13512321 179 17772484399515887953
14114211 80 18046632476258866582
14739800 52 17988636462548906867
14784336 7 17479437380766507415
14790565 3 17973729374469016108
15420108 30 18270956955043264598
16993438 75 17613147473759993253
17980427 23 17845367752925382607
20739085 24 18334573564213122774
2132832 1 18271228509479081671
21927370 108 17680146275799101666
3117164 225 18270960150699184523
3493558 16 17559676139999788051
4616759 239 16610250465367436224
5895379 119 17345772780134659635

> <PUBCHEM_SHAPE_MULTIPOLES>
662.17
11.48
5.92
2.37
8.77
0.86
-0.02
-2.2
-6.33
-5.15
1.45
1.24
1.28
-2.17

> <PUBCHEM_SHAPE_SELFOVERLAP>
1370.759

> <PUBCHEM_SHAPE_VOLUME>
374.8

> <PUBCHEM_COORDINATE_TYPE>
2
5
10

$$$$
10961286
  -OEChem-07172408123D

 67 69  0     1  0  0  0  0  0999 V2000
    3.1342    1.1083   -2.9962 O   0  0  0  0  0  0  0  0  0  0  0  0
   -2.0770   -0.3413    0.1183 O   0  0  0  0  0  0  0  0  0  0  0  0
    0.4475    0.0577    0.9631 O   0  0  0  0  0  0  0  0  0  0  0  0
    1.3006   -0.2013   -1.1841 N   0  0  0  0  0  0  0  0  0  0  0  0
    3.8029    3.1509    0.7015 N   0  0  0  0  0  0  0  0  0  0  0  0
    3.1792    1.2856   -1.5826 C   0  0  2  0  0  0  0  0  0  0  0  0
    2.7021    0.0053   -0.8560 C   0  0  2  0  0  0  0  0  0  0  0  0
    2.3634    2.5365   -1.2078 C   0  0  0  0  0  0  0  0  0  0  0  0
    2.4165    2.8961    0.2954 C   0  0  2  0  0  0  0  0  0  0  0  0
    3.4673   -1.2945   -1.1801 C   0  0  0  0  0  0  0  0  0  0  0  0
    1.5695    4.1451    0.6212 C   0  0  0  0  0  0  0  0  0  0  0  0
    3.2455   -2.4414   -0.2290 C   0  0  0  0  0  0  0  0  0  0  0  0
    0.0918    3.8713    0.7735 C   0  0  0  0  0  0  0  0  0  0  0  0
    0.2966   -0.1555   -0.2368 C   0  0  0  0  0  0  0  0  0  0  0  0
    2.2163   -3.3400   -0.4713 C   0  0  0  0  0  0  0  0  0  0  0  0
    4.0735   -2.5819    0.8756 C   0  0  0  0  0  0  0  0  0  0  0  0
   -0.4132    3.5478    2.0225 C   0  0  0  0  0  0  0  0  0  0  0  0
   -0.7306    3.9482   -0.3389 C   0  0  0  0  0  0  0  0  0  0  0  0
   -1.0606   -0.4046   -0.8594 C   0  0  0  0  0  0  0  0  0  0  0  0
    2.0110   -4.4018    0.4097 C   0  0  0  0  0  0  0  0  0  0  0  0
    3.8681   -3.6438    1.7564 C   0  0  0  0  0  0  0  0  0  0  0  0
   -1.7778    3.2947    2.1627 C   0  0  0  0  0  0  0  0  0  0  0  0
   -2.0950    3.6951   -0.1986 C   0  0  0  0  0  0  0  0  0  0  0  0
    2.8369   -4.5536    1.5236 C   0  0  0  0  0  0  0  0  0  0  0  0
   -2.6186    3.3684    1.0521 C   0  0  0  0  0  0  0  0  0  0  0  0
   -3.1949   -1.1149   -0.0873 C   0  0  0  0  0  0  0  0  0  0  0  0
   -3.2334   -2.4120    0.4094 C   0  0  0  0  0  0  0  0  0  0  0  0
   -4.2728   -0.5904   -0.7899 C   0  0  0  0  0  0  0  0  0  0  0  0
   -4.3672   -3.1970    0.2000 C   0  0  0  0  0  0  0  0  0  0  0  0
   -5.4068   -1.3753   -0.9991 C   0  0  0  0  0  0  0  0  0  0  0  0
   -2.0800   -2.9851    1.1651 C   0  0  0  0  0  0  0  0  0  0  0  0
   -4.2410    0.8019   -1.3287 C   0  0  0  0  0  0  0  0  0  0  0  0
   -5.4539   -2.6786   -0.5042 C   0  0  0  0  0  0  0  0  0  0  0  0
    4.2359    1.4414   -1.3398 H   0  0  0  0  0  0  0  0  0  0  0  0
    2.7937    0.1684    0.2233 H   0  0  0  0  0  0  0  0  0  0  0  0
    1.3267    2.4032   -1.5358 H   0  0  0  0  0  0  0  0  0  0  0  0
    2.7335    3.3845   -1.8012 H   0  0  0  0  0  0  0  0  0  0  0  0
    2.0477    2.0687    0.9055 H   0  0  0  0  0  0  0  0  0  0  0  0
    4.5429   -1.0702   -1.1940 H   0  0  0  0  0  0  0  0  0  0  0  0
    3.2367   -1.6253   -2.2024 H   0  0  0  0  0  0  0  0  0  0  0  0
    1.9176    4.5932    1.5635 H   0  0  0  0  0  0  0  0  0  0  0  0
    1.7279    4.9266   -0.1345 H   0  0  0  0  0  0  0  0  0  0  0  0
    1.0618   -0.3819   -2.1552 H   0  0  0  0  0  0  0  0  0  0  0  0
    4.3596    2.3035    0.6107 H   0  0  0  0  0  0  0  0  0  0  0  0
    4.2240    3.8426    0.0827 H   0  0  0  0  0  0  0  0  0  0  0  0
    3.4889    1.9153   -3.4066 H   0  0  0  0  0  0  0  0  0  0  0  0
    1.5672   -3.2320   -1.3355 H   0  0  0  0  0  0  0  0  0  0  0  0
    4.8774   -1.8770    1.0678 H   0  0  0  0  0  0  0  0  0  0  0  0
    0.2337    3.4847    2.8927 H   0  0  0  0  0  0  0  0  0  0  0  0
   -0.3353    4.2084   -1.3164 H   0  0  0  0  0  0  0  0  0  0  0  0
   -1.0376   -1.3832   -1.3555 H   0  0  0  0  0  0  0  0  0  0  0  0
   -1.2356    0.3696   -1.6139 H   0  0  0  0  0  0  0  0  0  0  0  0
    1.2072   -5.1095    0.2290 H   0  0  0  0  0  0  0  0  0  0  0  0
    4.5104   -3.7615    2.6243 H   0  0  0  0  0  0  0  0  0  0  0  0
   -2.1859    3.0407    3.1366 H   0  0  0  0  0  0  0  0  0  0  0  0
   -2.7499    3.7567   -1.0628 H   0  0  0  0  0  0  0  0  0  0  0  0
    2.6765   -5.3800    2.2098 H   0  0  0  0  0  0  0  0  0  0  0  0
   -3.6816    3.1790    1.1660 H   0  0  0  0  0  0  0  0  0  0  0  0
   -4.4188   -4.2148    0.5775 H   0  0  0  0  0  0  0  0  0  0  0  0
   -6.2622   -0.9872   -1.5456 H   0  0  0  0  0  0  0  0  0  0  0  0
   -2.3567   -3.9074    1.6874 H   0  0  0  0  0  0  0  0  0  0  0  0
   -1.7252   -2.2825    1.9266 H   0  0  0  0  0  0  0  0  0  0  0  0
   -1.2577   -3.2193    0.4817 H   0  0  0  0  0  0  0  0  0  0  0  0
   -5.1534    1.0389   -1.8872 H   0  0  0  0  0  0  0  0  0  0  0  0
   -3.4029    0.9429   -2.0159 H   0  0  0  0  0  0  0  0  0  0  0  0
   -4.1738    1.5163   -0.5067 H   0  0  0  0  0  0  0  0  0  0  0  0
   -6.3366   -3.2899   -0.6676 H   0  0  0  0  0  0  0  0  0  0  0  0
  1  6  1  0  0  0  0
  1 46  1  0  0  0  0
  2 19  1  0  0  0  0
  2 26  1  0  0  0  0
  3 14  2  0  0  0  0
  4  7  1  0  0  0  0
  4 14  1  0  0  0  0
  4 43  1  0  0  0  0
  5  9  1  0  0  0  0
  5 44  1  0  0  0  0
  5 45  1  0  0  0  0
  6  7  1  0  0  0  0
  6  8  1  0  0  0  0
  6 34  1  0  0  0  0
  7 10  1  0  0  0  0
  7 35  1  0  0  0  0
  8  9  1  0  0  0  0
  8 36  1  0  0  0  0
  8 37  1  0  0  0  0
  9 11  1  0  0  0  0
  9 38  1  0  0  0  0
 10 12  1  0  0  0  0
 10 39  1  0  0  0  0
 10 40  1  0  0  0  0
 11 13  1  0  0  0  0
 11 41  1  0  0  0  0
 11 42  1  0  0  0  0
 12 15  2  0  0  0  0
 12 16  1  0  0  0  0
 13 17  2  0  0  0  0
 13 18  1  0  0  0  0
 14 19  1  0  0  0  0
 15 20  1  0  0  0  0
 15 47  1  0  0  0  0
 16 21  2  0  0  0  0
 16 48  1  0  0  0  0
 17 22  1  0  0  0  0
 17 49  1  0  0  0  0
 18 23  2  0  0  0  0
 18 50  1  0  0  0  0
 19 51  1  0  0  0  0
 19 52  1  0  0  0  0
 20 24  2  0  0  0  0
 20 53  1  0  0  0  0
 21 24  1  0  0  0  0
 21 54  1  0  0  0  0
 22 25  2  0  0  0  0
 22 55  1  0  0  0  0
 23 25  1  0  0  0  0
 23 56  1  0  0  0  0
 24 57  1  0  0  0  0
 25 58  1  0  0  0  0
 26 27  2  0  0  0  0
 26 28  1  0  0  0  0
 27 29  1  0  0  0  0
 27 31  1  0  0  0  0
 28 30  2  0  0  0  0
 28 32  1  0  0  0  0
 29 33  2  0  0  0  0
 29 59  1  0  0  0  0
 30 33  1  0  0  0  0
 30 60  1  0  0  0  0
 31 61  1  0  0  0  0
 31 62  1  0  0  0  0
 31 63  1  0  0  0  0
 32 64  1  0  0  0  0
 32 65  1  0  0  0  0
 32 66  1  0  0  0  0
 33 67  1  0  0  0  0
M  END
> <PUBCHEM_COMPOUND_CID>
10961286

> <PUBCHEM_CONFORMER_RMSD>
1.2

> <PUBCHEM_CONFORMER_DIVERSEORDER>
1
185
271
80
272
251
38
95
144
175
63
183
239
142
216
236
102
98
235
188
111
62
156
59
264
72
170
234
256
202
166
151
120
56
263
8
194
96
141
242
254
249
83
160
82
231
212
238
10
44
108
154
201
100
177
180
221
89
15
174
222
32
193
48
16
233
182
87
162
118
171
240
224
219
208
129
78
268
103
27
31
246
252
50
150
119
46
210
75
189
4
168
269
116
21
173
45
261
106
198
184
191
76
232
253
220
86
228
245
88
125
225
84
126
61
192
158
39
20
229
143
99
218
161
30
18
230
49
203
114
3
52
104
9
122
199
147
13
77
2
110
244
169
135
101
74
207
132
34
265
257
214
58
157
153
255
71
91
33
81
107
259
85
124
55
163
197
66
133
200
267
165
176
73
179
68
134
181
35
131
28
266
40
128
209
19
6
247
262
25
146
241
90
148
42
139
159
243
123
12
205
136
172
149
115
36
213
227
29
93
215
204
260
41
140
22
51
94
54
14
127
178
258
195
105
237
206
7
145
155
57
186
226
187
270
211
117
43
67
69
64
92
130
70
121
11
164
190
112
5
223
37
138
217
17
60
250
137
53
113
23
65
196
167
26
152
109
24
97
47
79
248

> <PUBCHEM_MMFF94_PARTIAL_CHARGES>
49
1 -0.68
10 0.14
11 0.14
12 -0.14
13 -0.14
14 0.57
15 -0.15
16 -0.15
17 -0.15
18 -0.15
19 0.34
2 -0.36
20 -0.15
21 -0.15
22 -0.15
23 -0.15
24 -0.15
25 -0.15
26 0.08
27 -0.14
28 -0.14
29 -0.15
3 -0.57
30 -0.15
31 0.14
32 0.14
33 -0.15
4 -0.73
43 0.37
44 0.36
45 0.36
46 0.4
47 0.15
48 0.15
49 0.15
5 -0.99
50 0.15
53 0.15
54 0.15
55 0.15
56 0.15
57 0.15
58 0.15
59 0.15
6 0.28
60 0.15
67 0.15
7 0.3
9 0.27

> <PUBCHEM_EFFECTIVE_ROTOR_COUNT>
12

> <PUBCHEM_PHARMACOPHORE_FEATURES>
10
1 1 acceptor
1 1 donor
1 2 acceptor
1 3 acceptor
1 4 donor
1 5 cation
1 5 donor
6 12 15 16 20 21 24 rings
6 13 17 18 22 23 25 rings
6 26 27 28 29 30 33 rings

> <PUBCHEM_HEAVY_ATOM_COUNT>
33

> <PUBCHEM_ATOM_DEF_STEREO_COUNT>
3

> <PUBCHEM_ATOM_UDEF_STEREO_COUNT>
0

> <PUBCHEM_BOND_DEF_STEREO_COUNT>
0

> <PUBCHEM_BOND_UDEF_STEREO_COUNT>
0

> <PUBCHEM_ISOTOPIC_ATOM_COUNT>
0

> <PUBCHEM_COMPONENT_COUNT>
1

> <PUBCHEM_CACTVS_TAUTO_COUNT>
2

> <PUBCHEM_CONFORMER_ID>
00A7418600000001

> <PUBCHEM_MMFF94_ENERGY>
85.0871

> <PUBCHEM_FEATURE_SELFOVERLAP>
50.755

> <PUBCHEM_SHAPE_FINGERPRINT>
10074138 170 17546417017674447978
1100329 8 18196653987016775937
114674 6 17909835666803865333
12788726 201 18267310832909874047
13402501 40 17907573988966488301
13636023 20 17986106542317840267
140371 6 18195523697252391383
144659 178 18194394498683590666
14866123 147 17257927092333309955
15815584 197 18123479533381544942
16728300 4 17827598661673570008
17818456 19 17979357460615668255
20600515 1 17539081183367375280
20775438 99 17979311427757947725
20775530 9 18339653260520360005
21703447 108 18341887506965866440
22223350 30 18127402346315141209
23559900 14 18336533980592635683
3298306 158 18050004690378028143
4058900 60 17977395154403916660
4066623 53 18265592339797335173
4394409 98 17541363654075940421
79837 15 17476922351102348411
86090 222 17621607537209848937

> <PUBCHEM_SHAPE_MULTIPOLES>
651.55
9.47
8.06
1.81
5.03
2.32
0.11
-9.95
1.54
-1.39
-3.69
-0.99
0.79
-2.86

> <PUBCHEM_SHAPE_SELFOVERLAP>
1369.539

> <PUBCHEM_SHAPE_VOLUME>
366.8

> <PUBCHEM_COORDINATE_TYPE>
2
5
10

$$$$
76966392
  -OEChem-07172408123D

 74 76  0     1  0  0  0  0  0999 V2000
    2.9944    1.2815    3.3186 O   0  0  0  0  0  0  0  0  0  0  0  0
   -0.1462   -0.5148   -0.5953 O   0  0  0  0  0  0  0  0  0  0  0  0
   -4.3034   -1.2304    1.7666 O   0  0  0  0  0  0  0  0  0  0  0  0
    2.4316    2.2346   -1.5443 O   0  0  0  0  0  0  0  0  0  0  0  0
   -2.7517   -1.7530    0.1138 N   0  0  0  0  0  0  0  0  0  0  0  0
   -0.7411    0.6143    1.3429 N   0  0  0  0  0  0  0  0  0  0  0  0
   -5.0653   -1.5937   -0.3480 N   0  0  0  0  0  0  0  0  0  0  0  0
    3.5267    2.0407    0.5120 N   0  0  0  0  0  0  0  0  0  0  0  0
   -1.6039   -1.6188    0.9990 C   0  0  1  0  0  0  0  0  0  0  0  0
   -0.0298    1.8428    1.0627 C   0  0  2  0  0  0  0  0  0  0  0  0
    1.0391    2.1095    2.1423 C   0  0  0  0  0  0  0  0  0  0  0  0
    2.1020    0.9989    2.2383 C   0  0  1  0  0  0  0  0  0  0  0  0
   -0.8035   -2.9291    1.1552 C   0  0  0  0  0  0  0  0  0  0  0  0
    2.9422    0.7937    0.9591 C   0  0  2  0  0  0  0  0  0  0  0  0
   -0.7388   -0.4715    0.4810 C   0  0  0  0  0  0  0  0  0  0  0  0
   -1.0113    3.0265    0.9833 C   0  0  0  0  0  0  0  0  0  0  0  0
   -2.4622   -2.0008   -1.2989 C   0  0  0  0  0  0  0  0  0  0  0  0
   -3.6324   -2.6598   -2.0058 C   0  0  0  0  0  0  0  0  0  0  0  0
    4.0242   -0.2849    1.1430 C   0  0  0  0  0  0  0  0  0  0  0  0
   -4.0464   -1.5026    0.5903 C   0  0  0  0  0  0  0  0  0  0  0  0
    0.3884   -2.7958    2.1092 C   0  0  0  0  0  0  0  0  0  0  0  0
   -1.7098   -4.0761    1.6127 C   0  0  0  0  0  0  0  0  0  0  0  0
   -4.8674   -1.8192   -1.7656 C   0  0  0  0  0  0  0  0  0  0  0  0
   -2.0971    2.8287   -0.0476 C   0  0  0  0  0  0  0  0  0  0  0  0
    4.5187   -0.8475   -0.1695 C   0  0  0  0  0  0  0  0  0  0  0  0
   -1.9007    3.2602   -1.3595 C   0  0  0  0  0  0  0  0  0  0  0  0
   -3.2966    2.2146    0.3122 C   0  0  0  0  0  0  0  0  0  0  0  0
    3.8912   -1.9585   -0.7330 C   0  0  0  0  0  0  0  0  0  0  0  0
    5.6029   -0.2556   -0.8173 C   0  0  0  0  0  0  0  0  0  0  0  0
    3.2129    2.6317   -0.6894 C   0  0  0  0  0  0  0  0  0  0  0  0
   -2.9038    3.0775   -2.3115 C   0  0  0  0  0  0  0  0  0  0  0  0
   -4.2997    2.0318   -0.6396 C   0  0  0  0  0  0  0  0  0  0  0  0
   -4.1033    2.4633   -1.9516 C   0  0  0  0  0  0  0  0  0  0  0  0
    4.3480   -2.4777   -1.9444 C   0  0  0  0  0  0  0  0  0  0  0  0
    6.0596   -0.7746   -2.0287 C   0  0  0  0  0  0  0  0  0  0  0  0
    5.4323   -1.8858   -2.5923 C   0  0  0  0  0  0  0  0  0  0  0  0
   -1.9696   -1.3551    1.9988 H   0  0  0  0  0  0  0  0  0  0  0  0
    0.4519    1.7523    0.0856 H   0  0  0  0  0  0  0  0  0  0  0  0
    0.5535    2.2075    3.1231 H   0  0  0  0  0  0  0  0  0  0  0  0
    1.5254    3.0772    1.9664 H   0  0  0  0  0  0  0  0  0  0  0  0
    1.6142    0.0529    2.4947 H   0  0  0  0  0  0  0  0  0  0  0  0
   -0.3759   -3.2220    0.1889 H   0  0  0  0  0  0  0  0  0  0  0  0
    2.2606    0.4450    0.1755 H   0  0  0  0  0  0  0  0  0  0  0  0
   -1.2612    0.5656    2.2139 H   0  0  0  0  0  0  0  0  0  0  0  0
   -1.4812    3.1934    1.9623 H   0  0  0  0  0  0  0  0  0  0  0  0
   -0.4632    3.9508    0.7576 H   0  0  0  0  0  0  0  0  0  0  0  0
   -1.5820   -2.6366   -1.4160 H   0  0  0  0  0  0  0  0  0  0  0  0
   -2.2618   -1.0329   -1.7730 H   0  0  0  0  0  0  0  0  0  0  0  0
   -3.7853   -3.6685   -1.6024 H   0  0  0  0  0  0  0  0  0  0  0  0
   -3.4332   -2.7562   -3.0780 H   0  0  0  0  0  0  0  0  0  0  0  0
    3.6256   -1.1164    1.7394 H   0  0  0  0  0  0  0  0  0  0  0  0
    4.8755    0.1083    1.7144 H   0  0  0  0  0  0  0  0  0  0  0  0
    0.8956   -3.7578    2.2391 H   0  0  0  0  0  0  0  0  0  0  0  0
    0.0684   -2.4447    3.0958 H   0  0  0  0  0  0  0  0  0  0  0  0
    1.1267   -2.0919    1.7158 H   0  0  0  0  0  0  0  0  0  0  0  0
   -1.1331   -4.9983    1.7434 H   0  0  0  0  0  0  0  0  0  0  0  0
   -2.4936   -4.2884    0.8789 H   0  0  0  0  0  0  0  0  0  0  0  0
   -2.1901   -3.8424    2.5690 H   0  0  0  0  0  0  0  0  0  0  0  0
   -4.7806   -0.8389   -2.2455 H   0  0  0  0  0  0  0  0  0  0  0  0
   -5.7618   -2.3145   -2.1553 H   0  0  0  0  0  0  0  0  0  0  0  0
   -6.0104   -1.4014   -0.0305 H   0  0  0  0  0  0  0  0  0  0  0  0
    4.1981    2.5013    1.1195 H   0  0  0  0  0  0  0  0  0  0  0  0
    2.4602    1.3612    4.1272 H   0  0  0  0  0  0  0  0  0  0  0  0
   -0.9691    3.7372   -1.6522 H   0  0  0  0  0  0  0  0  0  0  0  0
   -3.4650    1.8760    1.3311 H   0  0  0  0  0  0  0  0  0  0  0  0
    3.0434   -2.4265   -0.2397 H   0  0  0  0  0  0  0  0  0  0  0  0
    6.1016    0.6095   -0.3885 H   0  0  0  0  0  0  0  0  0  0  0  0
    3.7768    3.5704   -0.8165 H   0  0  0  0  0  0  0  0  0  0  0  0
   -2.7504    3.4124   -3.3332 H   0  0  0  0  0  0  0  0  0  0  0  0
   -5.2346    1.5557   -0.3591 H   0  0  0  0  0  0  0  0  0  0  0  0
   -4.8842    2.3202   -2.6926 H   0  0  0  0  0  0  0  0  0  0  0  0
    3.8588   -3.3422   -2.3837 H   0  0  0  0  0  0  0  0  0  0  0  0
    6.9038   -0.3138   -2.5332 H   0  0  0  0  0  0  0  0  0  0  0  0
    5.7879   -2.2899   -3.5356 H   0  0  0  0  0  0  0  0  0  0  0  0
  1 12  1  0  0  0  0
  1 63  1  0  0  0  0
  2 15  2  0  0  0  0
  3 20  2  0  0  0  0
  4 30  2  0  0  0  0
  5  9  1  0  0  0  0
  5 17  1  0  0  0  0
  5 20  1  0  0  0  0
  6 10  1  0  0  0  0
  6 15  1  0  0  0  0
  6 44  1  0  0  0  0
  7 20  1  0  0  0  0
  7 23  1  0  0  0  0
  7 61  1  0  0  0  0
  8 14  1  0  0  0  0
  8 30  1  0  0  0  0
  8 62  1  0  0  0  0
  9 13  1  0  0  0  0
  9 15  1  0  0  0  0
  9 37  1  0  0  0  0
 10 11  1  0  0  0  0
 10 16  1  0  0  0  0
 10 38  1  0  0  0  0
 11 12  1  0  0  0  0
 11 39  1  0  0  0  0
 11 40  1  0  0  0  0
 12 14  1  0  0  0  0
 12 41  1  0  0  0  0
 13 21  1  0  0  0  0
 13 22  1  0  0  0  0
 13 42  1  0  0  0  0
 14 19  1  0  0  0  0
 14 43  1  0  0  0  0
 16 24  1  0  0  0  0
 16 45  1  0  0  0  0
 16 46  1  0  0  0  0
 17 18  1  0  0  0  0
 17 47  1  0  0  0  0
 17 48  1  0  0  0  0
 18 23  1  0  0  0  0
 18 49  1  0  0  0  0
 18 50  1  0  0  0  0
 19 25  1  0  0  0  0
 19 51  1  0  0  0  0
 19 52  1  0  0  0  0
 21 53  1  0  0  0  0
 21 54  1  0  0  0  0
 21 55  1  0  0  0  0
 22 56  1  0  0  0  0
 22 57  1  0  0  0  0
 22 58  1  0  0  0  0
 23 59  1  0  0  0  0
 23 60  1  0  0  0  0
 24 26  2  0  0  0  0
 24 27  1  0  0  0  0
 25 28  2  0  0  0  0
 25 29  1  0  0  0  0
 26 31  1  0  0  0  0
 26 64  1  0  0  0  0
 27 32  2  0  0  0  0
 27 65  1  0  0  0  0
 28 34  1  0  0  0  0
 28 66  1  0  0  0  0
 29 35  2  0  0  0  0
 29 67  1  0  0  0  0
 30 68  1  0  0  0  0
 31 33  2  0  0  0  0
 31 69  1  0  0  0  0
 32 33  1  0  0  0  0
 32 70  1  0  0  0  0
 33 71  1  0  0  0  0
 34 36  2  0  0  0  0
 34 72  1  0  0  0  0
 35 36  1  0  0  0  0
 35 73  1  0  0  0  0
 36 74  1  0  0  0  0
M  END
> <PUBCHEM_COMPOUND_CID>
76966392

> <PUBCHEM_CONFORMER_RMSD>
1.2

> <PUBCHEM_CONFORMER_DIVERSEORDER>
1
88
126
149
197
205
35
66
132
82
125
100
181
13
192
117
62
258
94
203
207
52
198
177
110
200
22
218
141
10
134
92
163
113
104
89
31
216
43
79
120
166
109
137
171
139
191
236
15
243
257
208
83
135
121
227
187
152
70
154
130
195
202
259
68
194
107
199
155
30
212
262
115
168
182
196
64
32
47
188
256
175
201
103
158
42
240
239
96
97
20
84
210
56
114
190
255
185
101
26
253
77
252
4
48
178
25
179
116
61
241
153
6
63
206
45
221
143
74
220
53
11
226
245
81
169
176
159
49
148
150
151
238
223
217
215
67
50
14
160
46
193
51
85
41
131
54
225
233
98
244
133
173
186
174
250
247
39
60
224
86
108
204
213
72
16
90
161
219
18
246
9
106
93
142
237
146
34
165
140
138
230
145
78
147
156
21
23
38
111
189
75
17
59
170
211
248
44
128
27
228
261
29
129
3
209
28
19
119
222
172
102
242
180
260
65
254
232
73
112
40
118
24
183
136
105
55
95
91
2
164
57
69
249
123
36
58
12
124
80
184
33
234
8
87
214
162
231
144
127
235
167
76
263
37
5
122
99
251
71
157
7
229

> <PUBCHEM_MMFF94_PARTIAL_CHARGES>
46
1 -0.68
10 0.3
12 0.28
14 0.3
15 0.57
16 0.14
17 0.3
19 0.14
2 -0.57
20 0.69
23 0.3
24 -0.14
25 -0.14
26 -0.15
27 -0.15
28 -0.15
29 -0.15
3 -0.57
30 0.57
31 -0.15
32 -0.15
33 -0.15
34 -0.15
35 -0.15
36 -0.15
4 -0.57
44 0.37
5 -0.66
6 -0.73
61 0.37
62 0.37
63 0.4
64 0.15
65 0.15
66 0.15
67 0.15
68 0.06
69 0.15
7 -0.73
70 0.15
71 0.15
72 0.15
73 0.15
74 0.15
8 -0.73
9 0.36

> <PUBCHEM_EFFECTIVE_ROTOR_COUNT>
15

> <PUBCHEM_PHARMACOPHORE_FEATURES>
12
1 1 acceptor
1 1 donor
1 2 acceptor
1 3 acceptor
1 4 acceptor
1 6 donor
1 7 donor
1 8 donor
3 13 21 22 hydrophobe
6 24 26 27 31 32 33 rings
6 25 28 29 34 35 36 rings
6 5 7 17 18 20 23 rings

> <PUBCHEM_HEAVY_ATOM_COUNT>
36

> <PUBCHEM_ATOM_DEF_STEREO_COUNT>
4

> <PUBCHEM_ATOM_UDEF_STEREO_COUNT>
0

> <PUBCHEM_BOND_DEF_STEREO_COUNT>
0

> <PUBCHEM_BOND_UDEF_STEREO_COUNT>
0

> <PUBCHEM_ISOTOPIC_ATOM_COUNT>
0

> <PUBCHEM_COMPONENT_COUNT>
1

> <PUBCHEM_CACTVS_TAUTO_COUNT>
8

> <PUBCHEM_CONFORMER_ID>
049669F800000001

> <PUBCHEM_MMFF94_ENERGY>
75.4507

> <PUBCHEM_FEATURE_SELFOVERLAP>
60.899

> <PUBCHEM_SHAPE_FINGERPRINT>
10190108 129 18261406542264485619
11285246 1 18410283697018407381
11513181 2 18052245486933667269
12422481 6 18266764462157703393
12633046 712 16415185824099340803
12788726 201 18116415119786756465
13383661 66 17411301685034121063
14910302 57 18130216155547251453
19958102 18 18333729109112614492
21285901 2 18196633301973561411
21344244 181 17916565567582767525
23559900 14 18343580725029832288
24941158 1 16413759757322729594
27425 322 16011564782262734249
354706 35 17687164805202608966
437795 70 18342174466557876519
46194498 28 18340214089350280548
463206 1 17988086724332249294
508706 21 18335421274498077382
563151 248 16126695787046687297
7237137 82 18409736131695479148

> <PUBCHEM_SHAPE_MULTIPOLES>
697.46
11.86
5.01
2.79
9.5
0.18
-0.16
3.53
8.14
-4.23
0.24
1.36
0.2
2.78

> <PUBCHEM_SHAPE_SELFOVERLAP>
1444.317

> <PUBCHEM_SHAPE_VOLUME>
394.2

> <PUBCHEM_COORDINATE_TYPE>
2
5
10

$$$$
76971469
  -OEChem-07172408123D

 69 71  0     1  0  0  0  0  0999 V2000
    1.8802   -1.7269   -3.6253 O   0  0  0  0  0  0  0  0  0  0  0  0
   -2.6663    0.4452    0.2802 O   0  0  0  0  0  0  0  0  0  0  0  0
   -0.1002   -0.2647    0.6787 O   0  0  0  0  0  0  0  0  0  0  0  0
    3.7633   -0.2568    1.1787 O   0  0  0  0  0  0  0  0  0  0  0  0
    0.0101   -1.3693   -1.3643 N   0  0  0  0  0  0  0  0  0  0  0  0
    4.0229    0.7806   -0.9004 N   0  0  0  0  0  0  0  0  0  0  0  0
    2.2550   -1.1556   -2.3695 C   0  0  2  0  0  0  0  0  0  0  0  0
    1.3884   -1.8023   -1.2672 C   0  0  2  0  0  0  0  0  0  0  0  0
    2.1578    0.3795   -2.4509 C   0  0  0  0  0  0  0  0  0  0  0  0
    2.6358    1.0924   -1.1693 C   0  0  2  0  0  0  0  0  0  0  0  0
    1.4836   -3.3381   -1.2814 C   0  0  0  0  0  0  0  0  0  0  0  0
    2.4428    2.6139   -1.3046 C   0  0  0  0  0  0  0  0  0  0  0  0
    1.0685   -3.9623    0.0308 C   0  0  0  0  0  0  0  0  0  0  0  0
    2.4363    3.3315    0.0245 C   0  0  0  0  0  0  0  0  0  0  0  0
   -0.6158   -0.6327   -0.3734 C   0  0  0  0  0  0  0  0  0  0  0  0
   -0.2635   -4.3173    0.2434 C   0  0  0  0  0  0  0  0  0  0  0  0
    2.0170   -4.1834    1.0292 C   0  0  0  0  0  0  0  0  0  0  0  0
    3.6304    3.8081    0.5652 C   0  0  0  0  0  0  0  0  0  0  0  0
    1.2364    3.5178    0.7110 C   0  0  0  0  0  0  0  0  0  0  0  0
    4.4445    0.1402    0.2418 C   0  0  0  0  0  0  0  0  0  0  0  0
   -2.0511   -0.3170   -0.7365 C   0  0  0  0  0  0  0  0  0  0  0  0
   -0.6470   -4.8934    1.4544 C   0  0  0  0  0  0  0  0  0  0  0  0
    1.6337   -4.7597    2.2404 C   0  0  0  0  0  0  0  0  0  0  0  0
    3.6248    4.4709    1.7925 C   0  0  0  0  0  0  0  0  0  0  0  0
    1.2306    4.1807    1.9383 C   0  0  0  0  0  0  0  0  0  0  0  0
    0.3016   -5.1148    2.4528 C   0  0  0  0  0  0  0  0  0  0  0  0
    2.4248    4.6573    2.4790 C   0  0  0  0  0  0  0  0  0  0  0  0
   -3.9776    0.8096    0.0848 C   0  0  0  0  0  0  0  0  0  0  0  0
   -4.2800    2.0110   -0.5562 C   0  0  0  0  0  0  0  0  0  0  0  0
   -5.0056   -0.0224    0.5281 C   0  0  0  0  0  0  0  0  0  0  0  0
   -5.6104    2.3803   -0.7540 C   0  0  0  0  0  0  0  0  0  0  0  0
   -6.3362    0.3469    0.3304 C   0  0  0  0  0  0  0  0  0  0  0  0
   -3.1940    2.9148   -1.0385 C   0  0  0  0  0  0  0  0  0  0  0  0
   -4.7022   -1.3118    1.2179 C   0  0  0  0  0  0  0  0  0  0  0  0
   -6.6386    1.5482   -0.3107 C   0  0  0  0  0  0  0  0  0  0  0  0
    3.2996   -1.4464   -2.2061 H   0  0  0  0  0  0  0  0  0  0  0  0
    1.7828   -1.4598   -0.3043 H   0  0  0  0  0  0  0  0  0  0  0  0
    2.7589    0.7201   -3.3053 H   0  0  0  0  0  0  0  0  0  0  0  0
    1.1279    0.6721   -2.6908 H   0  0  0  0  0  0  0  0  0  0  0  0
    2.0327    0.7484   -0.3253 H   0  0  0  0  0  0  0  0  0  0  0  0
    2.5165   -3.6463   -1.4914 H   0  0  0  0  0  0  0  0  0  0  0  0
    0.8769   -3.7603   -2.0935 H   0  0  0  0  0  0  0  0  0  0  0  0
    3.2154    3.0474   -1.9537 H   0  0  0  0  0  0  0  0  0  0  0  0
    1.4877    2.8265   -1.8035 H   0  0  0  0  0  0  0  0  0  0  0  0
   -0.5082   -1.6188   -2.2018 H   0  0  0  0  0  0  0  0  0  0  0  0
    4.7185    1.0476   -1.5910 H   0  0  0  0  0  0  0  0  0  0  0  0
    2.4641   -1.3493   -4.3050 H   0  0  0  0  0  0  0  0  0  0  0  0
   -1.0125   -4.1508   -0.5262 H   0  0  0  0  0  0  0  0  0  0  0  0
    3.0572   -3.9081    0.8767 H   0  0  0  0  0  0  0  0  0  0  0  0
    4.5718    3.6708    0.0400 H   0  0  0  0  0  0  0  0  0  0  0  0
    0.3001    3.1476    0.3018 H   0  0  0  0  0  0  0  0  0  0  0  0
    5.5390    0.0094    0.2294 H   0  0  0  0  0  0  0  0  0  0  0  0
   -2.0517    0.2376   -1.6820 H   0  0  0  0  0  0  0  0  0  0  0  0
   -2.5844   -1.2639   -0.8792 H   0  0  0  0  0  0  0  0  0  0  0  0
   -1.6843   -5.1693    1.6200 H   0  0  0  0  0  0  0  0  0  0  0  0
    2.3721   -4.9311    3.0182 H   0  0  0  0  0  0  0  0  0  0  0  0
    4.5545    4.8420    2.2136 H   0  0  0  0  0  0  0  0  0  0  0  0
    0.2964    4.3247    2.4732 H   0  0  0  0  0  0  0  0  0  0  0  0
    0.0029   -5.5631    3.3958 H   0  0  0  0  0  0  0  0  0  0  0  0
    2.4205    5.1731    3.4348 H   0  0  0  0  0  0  0  0  0  0  0  0
   -5.8618    3.3120   -1.2538 H   0  0  0  0  0  0  0  0  0  0  0  0
   -7.1480   -0.2918    0.6684 H   0  0  0  0  0  0  0  0  0  0  0  0
   -3.5616    3.9357   -1.1903 H   0  0  0  0  0  0  0  0  0  0  0  0
   -2.7940    2.5536   -1.9909 H   0  0  0  0  0  0  0  0  0  0  0  0
   -2.3801    2.9802   -0.3087 H   0  0  0  0  0  0  0  0  0  0  0  0
   -5.5596   -1.6632    1.8026 H   0  0  0  0  0  0  0  0  0  0  0  0
   -4.4522   -2.0848    0.4847 H   0  0  0  0  0  0  0  0  0  0  0  0
   -3.8691   -1.1994    1.9197 H   0  0  0  0  0  0  0  0  0  0  0  0
   -7.6745    1.8354   -0.4655 H   0  0  0  0  0  0  0  0  0  0  0  0
  1  7  1  0  0  0  0
  1 47  1  0  0  0  0
  2 21  1  0  0  0  0
  2 28  1  0  0  0  0
  3 15  2  0  0  0  0
  4 20  2  0  0  0  0
  5  8  1  0  0  0  0
  5 15  1  0  0  0  0
  5 45  1  0  0  0  0
  6 10  1  0  0  0  0
  6 20  1  0  0  0  0
  6 46  1  0  0  0  0
  7  8  1  0  0  0  0
  7  9  1  0  0  0  0
  7 36  1  0  0  0  0
  8 11  1  0  0  0  0
  8 37  1  0  0  0  0
  9 10  1  0  0  0  0
  9 38  1  0  0  0  0
  9 39  1  0  0  0  0
 10 12  1  0  0  0  0
 10 40  1  0  0  0  0
 11 13  1  0  0  0  0
 11 41  1  0  0  0  0
 11 42  1  0  0  0  0
 12 14  1  0  0  0  0
 12 43  1  0  0  0  0
 12 44  1  0  0  0  0
 13 16  2  0  0  0  0
 13 17  1  0  0  0  0
 14 18  2  0  0  0  0
 14 19  1  0  0  0  0
 15 21  1  0  0  0  0
 16 22  1  0  0  0  0
 16 48  1  0  0  0  0
 17 23  2  0  0  0  0
 17 49  1  0  0  0  0
 18 24  1  0  0  0  0
 18 50  1  0  0  0  0
 19 25  2  0  0  0  0
 19 51  1  0  0  0  0
 20 52  1  0  0  0  0
 21 53  1  0  0  0  0
 21 54  1  0  0  0  0
 22 26  2  0  0  0  0
 22 55  1  0  0  0  0
 23 26  1  0  0  0  0
 23 56  1  0  0  0  0
 24 27  2  0  0  0  0
 24 57  1  0  0  0  0
 25 27  1  0  0  0  0
 25 58  1  0  0  0  0
 26 59  1  0  0  0  0
 27 60  1  0  0  0  0
 28 29  2  0  0  0  0
 28 30  1  0  0  0  0
 29 31  1  0  0  0  0
 29 33  1  0  0  0  0
 30 32  2  0  0  0  0
 30 34  1  0  0  0  0
 31 35  2  0  0  0  0
 31 61  1  0  0  0  0
 32 35  1  0  0  0  0
 32 62  1  0  0  0  0
 33 63  1  0  0  0  0
 33 64  1  0  0  0  0
 33 65  1  0  0  0  0
 34 66  1  0  0  0  0
 34 67  1  0  0  0  0
 34 68  1  0  0  0  0
 35 69  1  0  0  0  0
M  END
> <PUBCHEM_COMPOUND_CID>
76971469

> <PUBCHEM_CONFORMER_RMSD>
1.2

> <PUBCHEM_CONFORMER_DIVERSEORDER>
1
27
72
153
47
14
126
98
41
101
62
38
93
60
83
154
77
52
109
116
82
39
107
90
112
133
148
53
121
85
92
99
97
65
145
13
59
40
139
24
63
80
115
2
142
105
102
20
37
48
69
123
134
70
7
122
120
18
5
74
79
129
86
44
36
147
108
136
96
46
117
17
89
49
15
125
33
50
35
128
106
51
8
137
76
11
144
88
22
28
100
84
118
146
19
30
67
61
29
114
16
113
31
95
34
111
124
56
55
32
43
81
131
68
58
57
54
4
110
140
87
135
141
138
150
104
132
71
78
94
64
103
26
149
42
66
23
10
127
119
9
73
12
91
151
152
25
21
130
75
6
45
143
3

> <PUBCHEM_MMFF94_PARTIAL_CHARGES>
51
1 -0.68
10 0.3
11 0.14
12 0.14
13 -0.14
14 -0.14
15 0.57
16 -0.15
17 -0.15
18 -0.15
19 -0.15
2 -0.36
20 0.57
21 0.34
22 -0.15
23 -0.15
24 -0.15
25 -0.15
26 -0.15
27 -0.15
28 0.08
29 -0.14
3 -0.57
30 -0.14
31 -0.15
32 -0.15
33 0.14
34 0.14
35 -0.15
4 -0.57
45 0.37
46 0.37
47 0.4
48 0.15
49 0.15
5 -0.73
50 0.15
51 0.15
52 0.06
55 0.15
56 0.15
57 0.15
58 0.15
59 0.15
6 -0.73
60 0.15
61 0.15
62 0.15
69 0.15
7 0.28
8 0.3

> <PUBCHEM_EFFECTIVE_ROTOR_COUNT>
14

> <PUBCHEM_PHARMACOPHORE_FEATURES>
10
1 1 acceptor
1 1 donor
1 2 acceptor
1 3 acceptor
1 4 acceptor
1 5 donor
1 6 donor
6 13 16 17 22 23 26 rings
6 14 18 19 24 25 27 rings
6 28 29 30 31 32 35 rings

> <PUBCHEM_HEAVY_ATOM_COUNT>
35

> <PUBCHEM_ATOM_DEF_STEREO_COUNT>
3

> <PUBCHEM_ATOM_UDEF_STEREO_COUNT>
0

> <PUBCHEM_BOND_DEF_STEREO_COUNT>
0

> <PUBCHEM_BOND_UDEF_STEREO_COUNT>
0

> <PUBCHEM_ISOTOPIC_ATOM_COUNT>
0

> <PUBCHEM_COMPONENT_COUNT>
1

> <PUBCHEM_CACTVS_TAUTO_COUNT>
4

> <PUBCHEM_CONFORMER_ID>
04967DCD00000001

> <PUBCHEM_MMFF94_ENERGY>
88.6971

> <PUBCHEM_FEATURE_SELFOVERLAP>
50.756

> <PUBCHEM_SHAPE_FINGERPRINT>
10074138 170 17689140632151269425
10258939 38 16009879299598555622
10675989 125 18059862778673922297
12788726 201 17475486843814163506
140371 6 17042603112084440047
144659 178 17615124382760506307
15351339 4 18194695760875405420
15775530 1 17764910108693768806
17974551 9 18192706981054472566
18681886 176 17844815784865968239
21049683 118 18192702556378510123
21344244 78 17905877081462506835
23559900 14 18044096748831342687
24180151 40 17687195192909221726
24180151 46 18123169235681190770
376196 1 18058447784380391108
4058900 60 18263383471790788612
469060 322 16111198656268993614
57527306 92 17917136192859472162
57527452 28 17676773064038939722
79837 15 17976817911162577745
86090 222 18268448986706552357
9777508 108 17977390752046087914

> <PUBCHEM_SHAPE_MULTIPOLES>
686.84
10.73
8.8
2.51
21.02
5.71
-0.59
-10.86
0.29
-8
7.32
-2.72
0.84
2.88

> <PUBCHEM_SHAPE_SELFOVERLAP>
1439.668

> <PUBCHEM_SHAPE_VOLUME>
386.2

> <PUBCHEM_COORDINATE_TYPE>
2
5
10

$$$$
76965218
  -OEChem-07172408123D

 72 74  0     1  0  0  0  0  0999 V2000
   -1.3410    1.7810   -3.6446 O   0  0  0  0  0  0  0  0  0  0  0  0
    3.0853   -0.0347    0.5688 O   0  0  0  0  0  0  0  0  0  0  0  0
    0.4620    0.5246    0.8000 O   0  0  0  0  0  0  0  0  0  0  0  0
   -3.3746    0.2812    1.0637 O   0  0  0  0  0  0  0  0  0  0  0  0
    0.4084    1.5813   -1.2704 N   0  0  0  0  0  0  0  0  0  0  0  0
   -3.4891   -0.8005   -0.9942 N   0  0  0  0  0  0  0  0  0  0  0  0
   -1.7554    1.2119   -2.4005 C   0  0  1  0  0  0  0  0  0  0  0  0
   -1.5618   -0.3157   -2.4413 C   0  0  0  0  0  0  0  0  0  0  0  0
   -0.9967    1.9311   -1.2641 C   0  0  2  0  0  0  0  0  0  0  0  0
   -2.0722   -1.0320   -1.1742 C   0  0  2  0  0  0  0  0  0  0  0  0
   -1.1826    3.4577   -1.3185 C   0  0  0  0  0  0  0  0  0  0  0  0
   -1.7807   -2.5412   -1.2636 C   0  0  0  0  0  0  0  0  0  0  0  0
   -0.8850    4.1308    0.0013 C   0  0  0  0  0  0  0  0  0  0  0  0
   -2.2662   -3.3115   -0.0584 C   0  0  0  0  0  0  0  0  0  0  0  0
    1.0168    0.9033   -0.2281 C   0  0  0  0  0  0  0  0  0  0  0  0
   -4.0155   -0.1614    0.1141 C   0  0  0  0  0  0  0  0  0  0  0  0
    0.4082    4.5705    0.2837 C   0  0  0  0  0  0  0  0  0  0  0  0
   -1.9032    4.3125    0.9372 C   0  0  0  0  0  0  0  0  0  0  0  0
   -3.5565   -3.8409   -0.0431 C   0  0  0  0  0  0  0  0  0  0  0  0
   -1.4245   -3.4936    1.0387 C   0  0  0  0  0  0  0  0  0  0  0  0
    2.4876    0.6690   -0.4992 C   0  0  0  0  0  0  0  0  0  0  0  0
    0.6833    5.1919    1.5017 C   0  0  0  0  0  0  0  0  0  0  0  0
   -1.6283    4.9340    2.1554 C   0  0  0  0  0  0  0  0  0  0  0  0
   -5.5130   -0.0301    0.0363 C   0  0  0  0  0  0  0  0  0  0  0  0
   -4.0052   -4.5524    1.0696 C   0  0  0  0  0  0  0  0  0  0  0  0
   -1.8731   -4.2051    2.1515 C   0  0  0  0  0  0  0  0  0  0  0  0
   -0.3350    5.3738    2.4376 C   0  0  0  0  0  0  0  0  0  0  0  0
   -3.1634   -4.7347    2.1669 C   0  0  0  0  0  0  0  0  0  0  0  0
    4.1455   -0.8555    0.2640 C   0  0  0  0  0  0  0  0  0  0  0  0
    5.4461   -0.3521    0.2882 C   0  0  0  0  0  0  0  0  0  0  0  0
    3.9206   -2.1912   -0.0690 C   0  0  0  0  0  0  0  0  0  0  0  0
    6.5221   -1.1844   -0.0206 C   0  0  0  0  0  0  0  0  0  0  0  0
    4.9965   -3.0235   -0.3778 C   0  0  0  0  0  0  0  0  0  0  0  0
    5.7073    1.0747    0.6438 C   0  0  0  0  0  0  0  0  0  0  0  0
    2.5359   -2.7487   -0.1012 C   0  0  0  0  0  0  0  0  0  0  0  0
    6.2972   -2.5202   -0.3537 C   0  0  0  0  0  0  0  0  0  0  0  0
   -2.8235    1.4412   -2.3051 H   0  0  0  0  0  0  0  0  0  0  0  0
   -2.0897   -0.7068   -3.3220 H   0  0  0  0  0  0  0  0  0  0  0  0
   -0.5044   -0.5531   -2.6131 H   0  0  0  0  0  0  0  0  0  0  0  0
   -1.4266    1.5830   -0.3187 H   0  0  0  0  0  0  0  0  0  0  0  0
   -1.5438   -0.6485   -0.2977 H   0  0  0  0  0  0  0  0  0  0  0  0
   -2.2177    3.6980   -1.5956 H   0  0  0  0  0  0  0  0  0  0  0  0
   -0.5548    3.9007   -2.1030 H   0  0  0  0  0  0  0  0  0  0  0  0
   -2.2485   -2.9634   -2.1635 H   0  0  0  0  0  0  0  0  0  0  0  0
   -0.7022   -2.7059   -1.3866 H   0  0  0  0  0  0  0  0  0  0  0  0
    0.9602    1.8466   -2.0813 H   0  0  0  0  0  0  0  0  0  0  0  0
   -4.1176   -1.1189   -1.7264 H   0  0  0  0  0  0  0  0  0  0  0  0
   -1.8597    1.3560   -4.3487 H   0  0  0  0  0  0  0  0  0  0  0  0
    1.2105    4.4357   -0.4369 H   0  0  0  0  0  0  0  0  0  0  0  0
   -2.9140    3.9711    0.7302 H   0  0  0  0  0  0  0  0  0  0  0  0
   -4.2222   -3.7095   -0.8919 H   0  0  0  0  0  0  0  0  0  0  0  0
   -0.4196   -3.0817    1.0403 H   0  0  0  0  0  0  0  0  0  0  0  0
    2.5808    0.1216   -1.4457 H   0  0  0  0  0  0  0  0  0  0  0  0
    2.9786    1.6427   -0.6050 H   0  0  0  0  0  0  0  0  0  0  0  0
    1.6904    5.5340    1.7216 H   0  0  0  0  0  0  0  0  0  0  0  0
   -2.4209    5.0746    2.8845 H   0  0  0  0  0  0  0  0  0  0  0  0
   -5.9655   -0.9969   -0.2025 H   0  0  0  0  0  0  0  0  0  0  0  0
   -5.9034    0.3109    0.9991 H   0  0  0  0  0  0  0  0  0  0  0  0
   -5.7759    0.6971   -0.7367 H   0  0  0  0  0  0  0  0  0  0  0  0
   -5.0098   -4.9649    1.0815 H   0  0  0  0  0  0  0  0  0  0  0  0
   -1.2180   -4.3457    3.0063 H   0  0  0  0  0  0  0  0  0  0  0  0
   -0.1207    5.8574    3.3861 H   0  0  0  0  0  0  0  0  0  0  0  0
   -3.5128   -5.2885    3.0333 H   0  0  0  0  0  0  0  0  0  0  0  0
    7.5410   -0.8066   -0.0079 H   0  0  0  0  0  0  0  0  0  0  0  0
    4.8380   -4.0660   -0.6410 H   0  0  0  0  0  0  0  0  0  0  0  0
    5.1102    1.3800    1.5096 H   0  0  0  0  0  0  0  0  0  0  0  0
    6.7573    1.2361    0.9117 H   0  0  0  0  0  0  0  0  0  0  0  0
    5.4708    1.7252   -0.2040 H   0  0  0  0  0  0  0  0  0  0  0  0
    1.9903   -2.3644   -0.9687 H   0  0  0  0  0  0  0  0  0  0  0  0
    2.5396   -3.8423   -0.1638 H   0  0  0  0  0  0  0  0  0  0  0  0
    1.9933   -2.4833    0.8120 H   0  0  0  0  0  0  0  0  0  0  0  0
    7.1348   -3.1681   -0.5950 H   0  0  0  0  0  0  0  0  0  0  0  0
  1  7  1  0  0  0  0
  1 48  1  0  0  0  0
  2 21  1  0  0  0  0
  2 29  1  0  0  0  0
  3 15  2  0  0  0  0
  4 16  2  0  0  0  0
  5  9  1  0  0  0  0
  5 15  1  0  0  0  0
  5 46  1  0  0  0  0
  6 10  1  0  0  0  0
  6 16  1  0  0  0  0
  6 47  1  0  0  0  0
  7  8  1  0  0  0  0
  7  9  1  0  0  0  0
  7 37  1  0  0  0  0
  8 10  1  0  0  0  0
  8 38  1  0  0  0  0
  8 39  1  0  0  0  0
  9 11  1  0  0  0  0
  9 40  1  0  0  0  0
 10 12  1  0  0  0  0
 10 41  1  0  0  0  0
 11 13  1  0  0  0  0
 11 42  1  0  0  0  0
 11 43  1  0  0  0  0
 12 14  1  0  0  0  0
 12 44  1  0  0  0  0
 12 45  1  0  0  0  0
 13 17  2  0  0  0  0
 13 18  1  0  0  0  0
 14 19  2  0  0  0  0
 14 20  1  0  0  0  0
 15 21  1  0  0  0  0
 16 24  1  0  0  0  0
 17 22  1  0  0  0  0
 17 49  1  0  0  0  0
 18 23  2  0  0  0  0
 18 50  1  0  0  0  0
 19 25  1  0  0  0  0
 19 51  1  0  0  0  0
 20 26  2  0  0  0  0
 20 52  1  0  0  0  0
 21 53  1  0  0  0  0
 21 54  1  0  0  0  0
 22 27  2  0  0  0  0
 22 55  1  0  0  0  0
 23 27  1  0  0  0  0
 23 56  1  0  0  0  0
 24 57  1  0  0  0  0
 24 58  1  0  0  0  0
 24 59  1  0  0  0  0
 25 28  2  0  0  0  0
 25 60  1  0  0  0  0
 26 28  1  0  0  0  0
 26 61  1  0  0  0  0
 27 62  1  0  0  0  0
 28 63  1  0  0  0  0
 29 30  2  0  0  0  0
 29 31  1  0  0  0  0
 30 32  1  0  0  0  0
 30 34  1  0  0  0  0
 31 33  2  0  0  0  0
 31 35  1  0  0  0  0
 32 36  2  0  0  0  0
 32 64  1  0  0  0  0
 33 36  1  0  0  0  0
 33 65  1  0  0  0  0
 34 66  1  0  0  0  0
 34 67  1  0  0  0  0
 34 68  1  0  0  0  0
 35 69  1  0  0  0  0
 35 70  1  0  0  0  0
 35 71  1  0  0  0  0
 36 72  1  0  0  0  0
M  END
> <PUBCHEM_COMPOUND_CID>
76965218

> <PUBCHEM_CONFORMER_RMSD>
1.2

> <PUBCHEM_CONFORMER_DIVERSEORDER>
1
147
209
214
180
167
29
267
222
150
173
114
105
60
10
113
133
39
76
91
126
50
244
134
37
207
246
247
71
69
196
119
153
115
172
143
117
66
49
236
20
201
195
248
24
199
188
169
171
57
155
261
224
84
130
234
107
67
204
253
250
158
148
135
164
61
162
93
257
116
87
176
129
109
73
215
25
42
94
228
122
175
237
100
112
5
259
34
139
138
19
106
103
239
156
27
262
68
55
21
63
182
12
243
266
193
168
41
149
184
187
144
240
59
65
254
269
16
28
251
245
102
89
256
40
3
125
48
18
218
217
123
151
101
152
81
232
178
265
163
268
111
47
198
97
83
233
56
183
15
238
203
52
249
78
220
206
159
229
160
108
23
181
92
32
9
191
192
121
141
170
54
128
85
58
118
124
45
227
260
74
166
43
179
51
140
62
26
7
230
13
226
2
223
36
90
53
142
98
86
35
161
154
174
99
157
70
136
252
242
200
104
30
205
264
75
46
120
190
22
77
263
145
95
177
212
80
33
44
11
137
225
194
186
255
8
82
213
208
210
64
219
96
235
31
258
165
185
221
79
231
127
132
14
189
110
17
216
38
197
72
202
131
6
146
241
4
211
88

> <PUBCHEM_MMFF94_PARTIAL_CHARGES>
51
1 -0.68
10 0.3
11 0.14
12 0.14
13 -0.14
14 -0.14
15 0.57
16 0.57
17 -0.15
18 -0.15
19 -0.15
2 -0.36
20 -0.15
21 0.34
22 -0.15
23 -0.15
24 0.06
25 -0.15
26 -0.15
27 -0.15
28 -0.15
29 0.08
3 -0.57
30 -0.14
31 -0.14
32 -0.15
33 -0.15
34 0.14
35 0.14
36 -0.15
4 -0.57
46 0.37
47 0.37
48 0.4
49 0.15
5 -0.73
50 0.15
51 0.15
52 0.15
55 0.15
56 0.15
6 -0.73
60 0.15
61 0.15
62 0.15
63 0.15
64 0.15
65 0.15
7 0.28
72 0.15
9 0.3

> <PUBCHEM_EFFECTIVE_ROTOR_COUNT>
14

> <PUBCHEM_PHARMACOPHORE_FEATURES>
10
1 1 acceptor
1 1 donor
1 2 acceptor
1 3 acceptor
1 4 acceptor
1 5 donor
1 6 donor
6 13 17 18 22 23 27 rings
6 14 19 20 25 26 28 rings
6 29 30 31 32 33 36 rings

> <PUBCHEM_HEAVY_ATOM_COUNT>
36

> <PUBCHEM_ATOM_DEF_STEREO_COUNT>
3

> <PUBCHEM_ATOM_UDEF_STEREO_COUNT>
0

> <PUBCHEM_BOND_DEF_STEREO_COUNT>
0

> <PUBCHEM_BOND_UDEF_STEREO_COUNT>
0

> <PUBCHEM_ISOTOPIC_ATOM_COUNT>
0

> <PUBCHEM_COMPONENT_COUNT>
1

> <PUBCHEM_CACTVS_TAUTO_COUNT>
4

> <PUBCHEM_CONFORMER_ID>
0496656200000001

> <PUBCHEM_MMFF94_ENERGY>
91.7616

> <PUBCHEM_FEATURE_SELFOVERLAP>
50.756

> <PUBCHEM_SHAPE_FINGERPRINT>
10653451 467 17686892131426251624
12633046 712 18266737068349614741
12788726 201 18267009584014216866
14295345 954 18049153668894977531
14363568 33 17832427866786860014
14705955 166 18126568920927947366
15351339 4 17974543842128326103
15361156 5 18341897385828920142
15463212 79 17694486058539024240
16090146 7 18118123563324683508
16112460 7 17690272708632890826
17974551 9 18194123156257398285
1979834 28 16890327919906706451
21772528 278 17909562657745726272
22440779 20 18124627286815459498
22889206 1 17405435880430147251
23559900 14 17610054947331554263
24180151 46 18120952615912984969
4616759 239 18266440076357592824
469060 322 16516546377537102108
57527306 92 17774431686717803081
57527452 28 17751092323367738849
5912855 24 18338250335818810044
79837 15 18052822447007065000

> <PUBCHEM_SHAPE_MULTIPOLES>
707.42
11.09
9.26
2.27
19.07
7.15
-0.78
-12.7
1.11
-7.43
7.15
-2.37
1.31
2.01

> <PUBCHEM_SHAPE_SELFOVERLAP>
1480.974

> <PUBCHEM_SHAPE_VOLUME>
398.7

> <PUBCHEM_COORDINATE_TYPE>
2
5
10

$$$$
76968681
  -OEChem-07172408123D

 67 70  0     1  0  0  0  0  0999 V2000
    1.4074   -1.8380   -1.6661 O   0  0  0  0  0  0  0  0  0  0  0  0
    2.6867   -1.3120   -3.4519 O   0  0  0  0  0  0  0  0  0  0  0  0
   -1.9044   -0.3770    1.6422 O   0  0  0  0  0  0  0  0  0  0  0  0
   -3.2670    1.6840    0.5731 O   0  0  0  0  0  0  0  0  0  0  0  0
    3.3000   -0.4684   -1.4131 N   0  0  0  0  0  0  0  0  0  0  0  0
   -1.0351   -0.9981   -0.4230 N   0  0  0  0  0  0  0  0  0  0  0  0
    1.2228   -1.8757   -0.2315 C   0  0  1  0  0  0  0  0  0  0  0  0
    1.6907   -0.5769    0.4078 C   0  0  0  0  0  0  0  0  0  0  0  0
    3.1499   -0.3726    0.0289 C   0  0  2  0  0  0  0  0  0  0  0  0
   -0.2545   -2.1266    0.0351 C   0  0  2  0  0  0  0  0  0  0  0  0
    3.6736    0.9644    0.5389 C   0  0  0  0  0  0  0  0  0  0  0  0
   -0.7180   -3.4294   -0.6385 C   0  0  0  0  0  0  0  0  0  0  0  0
    2.4840   -1.2168   -2.2422 C   0  0  0  0  0  0  0  0  0  0  0  0
    5.1779    0.9933    0.5844 C   0  0  0  0  0  0  0  0  0  0  0  0
   -1.9948   -3.9798   -0.0487 C   0  0  0  0  0  0  0  0  0  0  0  0
   -1.7973   -0.2168    0.4295 C   0  0  0  0  0  0  0  0  0  0  0  0
    5.9007    1.4281   -0.5264 C   0  0  0  0  0  0  0  0  0  0  0  0
    5.8490    0.5856    1.7371 C   0  0  0  0  0  0  0  0  0  0  0  0
   -3.2282   -3.5931   -0.5726 C   0  0  0  0  0  0  0  0  0  0  0  0
   -1.9407   -4.8749    1.0198 C   0  0  0  0  0  0  0  0  0  0  0  0
   -2.5074    0.8930   -0.3161 C   0  0  0  0  0  0  0  0  0  0  0  0
    7.2946    1.4553   -0.4846 C   0  0  0  0  0  0  0  0  0  0  0  0
    7.2430    0.6126    1.7792 C   0  0  0  0  0  0  0  0  0  0  0  0
   -4.4076   -4.1014   -0.0283 C   0  0  0  0  0  0  0  0  0  0  0  0
   -3.1200   -5.3834    1.5641 C   0  0  0  0  0  0  0  0  0  0  0  0
   -4.3535   -4.9966    1.0402 C   0  0  0  0  0  0  0  0  0  0  0  0
    7.9658    1.0475    0.6683 C   0  0  0  0  0  0  0  0  0  0  0  0
   -3.4363    3.0088    0.2462 C   0  0  0  0  0  0  0  0  0  0  0  0
   -2.5181    3.9600    0.6904 C   0  0  0  0  0  0  0  0  0  0  0  0
   -4.5269    3.4014   -0.5298 C   0  0  0  0  0  0  0  0  0  0  0  0
   -2.6903    5.3039    0.3587 C   0  0  0  0  0  0  0  0  0  0  0  0
   -4.6993    4.7453   -0.8615 C   0  0  0  0  0  0  0  0  0  0  0  0
   -1.3438    3.5599    1.5212 C   0  0  0  0  0  0  0  0  0  0  0  0
   -5.5218    2.3980   -1.0137 C   0  0  0  0  0  0  0  0  0  0  0  0
   -3.7810    5.6965   -0.4173 C   0  0  0  0  0  0  0  0  0  0  0  0
    1.8116   -2.7206    0.1479 H   0  0  0  0  0  0  0  0  0  0  0  0
    1.5713   -0.6129    1.4966 H   0  0  0  0  0  0  0  0  0  0  0  0
    1.1157    0.2787    0.0323 H   0  0  0  0  0  0  0  0  0  0  0  0
    3.7403   -1.1972    0.4501 H   0  0  0  0  0  0  0  0  0  0  0  0
   -0.3834   -2.2242    1.1209 H   0  0  0  0  0  0  0  0  0  0  0  0
    3.2972    1.1570    1.5525 H   0  0  0  0  0  0  0  0  0  0  0  0
    3.3033    1.7950   -0.0768 H   0  0  0  0  0  0  0  0  0  0  0  0
    0.0573   -4.2009   -0.5374 H   0  0  0  0  0  0  0  0  0  0  0  0
   -0.8523   -3.2868   -1.7192 H   0  0  0  0  0  0  0  0  0  0  0  0
    4.1248   -0.0621   -1.8417 H   0  0  0  0  0  0  0  0  0  0  0  0
   -1.0142   -0.7766   -1.4145 H   0  0  0  0  0  0  0  0  0  0  0  0
    5.3931    1.7608   -1.4277 H   0  0  0  0  0  0  0  0  0  0  0  0
    5.2974    0.2425    2.6084 H   0  0  0  0  0  0  0  0  0  0  0  0
   -3.2843   -2.8966   -1.4049 H   0  0  0  0  0  0  0  0  0  0  0  0
   -0.9859   -5.1819    1.4385 H   0  0  0  0  0  0  0  0  0  0  0  0
   -1.7538    1.4903   -0.8448 H   0  0  0  0  0  0  0  0  0  0  0  0
   -3.1787    0.4391   -1.0535 H   0  0  0  0  0  0  0  0  0  0  0  0
   -5.3680   -3.8000   -0.4361 H   0  0  0  0  0  0  0  0  0  0  0  0
   -3.0780   -6.0798    2.3965 H   0  0  0  0  0  0  0  0  0  0  0  0
    7.8575    1.7965   -1.3485 H   0  0  0  0  0  0  0  0  0  0  0  0
    7.7656    0.2946    2.6766 H   0  0  0  0  0  0  0  0  0  0  0  0
   -5.2718   -5.3922    1.4642 H   0  0  0  0  0  0  0  0  0  0  0  0
    9.0511    1.0691    0.7011 H   0  0  0  0  0  0  0  0  0  0  0  0
   -1.9828    6.0570    0.6954 H   0  0  0  0  0  0  0  0  0  0  0  0
   -5.5429    5.0665   -1.4668 H   0  0  0  0  0  0  0  0  0  0  0  0
   -1.6532    2.9030    2.3411 H   0  0  0  0  0  0  0  0  0  0  0  0
   -0.6018    3.0411    0.9060 H   0  0  0  0  0  0  0  0  0  0  0  0
   -0.8553    4.4284    1.9763 H   0  0  0  0  0  0  0  0  0  0  0  0
   -5.1156    1.8426   -1.8647 H   0  0  0  0  0  0  0  0  0  0  0  0
   -5.7891    1.6941   -0.2185 H   0  0  0  0  0  0  0  0  0  0  0  0
   -6.4522    2.8783   -1.3360 H   0  0  0  0  0  0  0  0  0  0  0  0
   -3.9147    6.7428   -0.6762 H   0  0  0  0  0  0  0  0  0  0  0  0
  1  7  1  0  0  0  0
  1 13  1  0  0  0  0
  2 13  2  0  0  0  0
  3 16  2  0  0  0  0
  4 21  1  0  0  0  0
  4 28  1  0  0  0  0
  5  9  1  0  0  0  0
  5 13  1  0  0  0  0
  5 45  1  0  0  0  0
  6 10  1  0  0  0  0
  6 16  1  0  0  0  0
  6 46  1  0  0  0  0
  7  8  1  0  0  0  0
  7 10  1  0  0  0  0
  7 36  1  0  0  0  0
  8  9  1  0  0  0  0
  8 37  1  0  0  0  0
  8 38  1  0  0  0  0
  9 11  1  0  0  0  0
  9 39  1  0  0  0  0
 10 12  1  0  0  0  0
 10 40  1  0  0  0  0
 11 14  1  0  0  0  0
 11 41  1  0  0  0  0
 11 42  1  0  0  0  0
 12 15  1  0  0  0  0
 12 43  1  0  0  0  0
 12 44  1  0  0  0  0
 14 17  2  0  0  0  0
 14 18  1  0  0  0  0
 15 19  2  0  0  0  0
 15 20  1  0  0  0  0
 16 21  1  0  0  0  0
 17 22  1  0  0  0  0
 17 47  1  0  0  0  0
 18 23  2  0  0  0  0
 18 48  1  0  0  0  0
 19 24  1  0  0  0  0
 19 49  1  0  0  0  0
 20 25  2  0  0  0  0
 20 50  1  0  0  0  0
 21 51  1  0  0  0  0
 21 52  1  0  0  0  0
 22 27  2  0  0  0  0
 22 55  1  0  0  0  0
 23 27  1  0  0  0  0
 23 56  1  0  0  0  0
 24 26  2  0  0  0  0
 24 53  1  0  0  0  0
 25 26  1  0  0  0  0
 25 54  1  0  0  0  0
 26 57  1  0  0  0  0
 27 58  1  0  0  0  0
 28 29  2  0  0  0  0
 28 30  1  0  0  0  0
 29 31  1  0  0  0  0
 29 33  1  0  0  0  0
 30 32  2  0  0  0  0
 30 34  1  0  0  0  0
 31 35  2  0  0  0  0
 31 59  1  0  0  0  0
 32 35  1  0  0  0  0
 32 60  1  0  0  0  0
 33 61  1  0  0  0  0
 33 62  1  0  0  0  0
 33 63  1  0  0  0  0
 34 64  1  0  0  0  0
 34 65  1  0  0  0  0
 34 66  1  0  0  0  0
 35 67  1  0  0  0  0
M  END
> <PUBCHEM_COMPOUND_CID>
76968681

> <PUBCHEM_CONFORMER_RMSD>
1.4

> <PUBCHEM_CONFORMER_DIVERSEORDER>
1
72
129
6
51
74
92
85
123
28
47
89
13
112
126
107
45
50
113
8
44
20
22
42
99
104
82
33
111
61
39
110
91
70
46
35
80
108
9
32
102
2
68
64
115
34
136
16
77
55
30
132
134
59
96
127
31
97
101
103
17
118
76
52
87
83
4
122
27
57
93
38
130
29
117
56
40
43
88
125
36
114
94
116
131
128
37
75
119
23
135
124
95
60
3
98
49
78
69
25
26
66
58
41
121
11
14
67
54
90
5
120
15
86
71
133
19
84
62
63
106
12
48
53
79
18
10
105
100
65
81
24
73
109
7
21

> <PUBCHEM_MMFF94_PARTIAL_CHARGES>
49
1 -0.43
10 0.3
11 0.14
12 0.14
13 0.78
14 -0.14
15 -0.14
16 0.57
17 -0.15
18 -0.15
19 -0.15
2 -0.57
20 -0.15
21 0.34
22 -0.15
23 -0.15
24 -0.15
25 -0.15
26 -0.15
27 -0.15
28 0.08
29 -0.14
3 -0.57
30 -0.14
31 -0.15
32 -0.15
33 0.14
34 0.14
35 -0.15
4 -0.36
45 0.37
46 0.37
47 0.15
48 0.15
49 0.15
5 -0.73
50 0.15
53 0.15
54 0.15
55 0.15
56 0.15
57 0.15
58 0.15
59 0.15
6 -0.73
60 0.15
67 0.15
7 0.28
9 0.3

> <PUBCHEM_EFFECTIVE_ROTOR_COUNT>
11

> <PUBCHEM_PHARMACOPHORE_FEATURES>
9
1 2 acceptor
1 3 acceptor
1 4 acceptor
1 5 donor
1 6 donor
6 1 5 7 8 9 13 rings
6 14 17 18 22 23 27 rings
6 15 19 20 24 25 26 rings
6 28 29 30 31 32 35 rings

> <PUBCHEM_HEAVY_ATOM_COUNT>
35

> <PUBCHEM_ATOM_DEF_STEREO_COUNT>
3

> <PUBCHEM_ATOM_UDEF_STEREO_COUNT>
0

> <PUBCHEM_BOND_DEF_STEREO_COUNT>
0

> <PUBCHEM_BOND_UDEF_STEREO_COUNT>
0

> <PUBCHEM_ISOTOPIC_ATOM_COUNT>
0

> <PUBCHEM_COMPONENT_COUNT>
1

> <PUBCHEM_CACTVS_TAUTO_COUNT>
4

> <PUBCHEM_CONFORMER_ID>
049672E900000001

> <PUBCHEM_MMFF94_ENERGY>
98.4047

> <PUBCHEM_FEATURE_SELFOVERLAP>
45.68

> <PUBCHEM_SHAPE_FINGERPRINT>
10290309 65 18267313019311615121
10653451 467 18200311147663892785
10937287 8 18194401091743135541
11059845 2 18264191544998208352
12107183 9 18118951513551617210
12440610 7 18340775832101459350
12788726 201 18045514254778077271
13540713 4 18059594476757177070
15198563 99 18339921649169102431
15400415 2 18122059797841648472
15439362 3 18124591990652745634
16090146 7 16805885233973611266
21033648 144 18130234782514673598
21033648 29 18265907868804759637
21133410 221 17485613204826442064
21304303 282 18337377276094068631
21639891 77 18045491169930215471
23522609 53 17676780834041233316
23929065 36 18339354274998724866
3418910 222 17976263762041160472
6695519 79 18052284816381954337
6700243 42 17838935785954030284
9849439 229 18266177219072917381
9896288 288 18408881871676108370
9981440 41 18264490581574407745

> <PUBCHEM_SHAPE_MULTIPOLES>
686.84
16.06
9.54
1.74
35.87
0.4
-0.89
10.59
2.68
-24.95
1.88
1.67
-0.79
2.91

> <PUBCHEM_SHAPE_SELFOVERLAP>
1465.58

> <PUBCHEM_SHAPE_VOLUME>
378.3

> <PUBCHEM_COORDINATE_TYPE>
2
5
10

$$$$
76969209
  -OEChem-07172408123D

 54 55  0     0  0  0  0  0  0999 V2000
   -4.6735   -0.5139    0.7440 O   0  0  0  0  0  0  0  0  0  0  0  0
    4.6859   -0.5091   -0.7447 O   0  0  0  0  0  0  0  0  0  0  0  0
   -3.4876   -2.9204    0.5395 O   0  0  0  0  0  0  0  0  0  0  0  0
    3.4888   -2.9168   -0.5396 O   0  0  0  0  0  0  0  0  0  0  0  0
   -1.3848   -1.9660    0.2144 N   0  0  0  0  0  0  0  0  0  0  0  0
    1.3863   -1.9622   -0.2141 N   0  0  0  0  0  0  0  0  0  0  0  0
   -5.3864    0.5597    0.2648 C   0  0  0  0  0  0  0  0  0  0  0  0
    5.3883    0.5581   -0.2669 C   0  0  0  0  0  0  0  0  0  0  0  0
   -5.5696    1.6883    1.0637 C   0  0  0  0  0  0  0  0  0  0  0  0
    5.5684    1.6883   -1.0642 C   0  0  0  0  0  0  0  0  0  0  0  0
   -5.9268    0.5198   -1.0204 C   0  0  0  0  0  0  0  0  0  0  0  0
    5.9267    0.5187    1.0191 C   0  0  0  0  0  0  0  0  0  0  0  0
   -6.2932    2.7771    0.5774 C   0  0  0  0  0  0  0  0  0  0  0  0
    6.2869    2.7793   -0.5752 C   0  0  0  0  0  0  0  0  0  0  0  0
   -6.6505    1.6087   -1.5070 C   0  0  0  0  0  0  0  0  0  0  0  0
    6.6453    1.6098    1.5082 C   0  0  0  0  0  0  0  0  0  0  0  0
   -6.8336    2.7373   -0.7080 C   0  0  0  0  0  0  0  0  0  0  0  0
    6.8254    2.7400    0.7110 C   0  0  0  0  0  0  0  0  0  0  0  0
   -4.9986    1.7505    2.4419 C   0  0  0  0  0  0  0  0  0  0  0  0
    4.9994    1.7501   -2.4431 C   0  0  0  0  0  0  0  0  0  0  0  0
   -5.7430   -0.6801   -1.8905 C   0  0  0  0  0  0  0  0  0  0  0  0
    5.7460   -0.6829    1.8875 C   0  0  0  0  0  0  0  0  0  0  0  0
   -3.2815   -0.5199    0.5082 C   0  0  0  0  0  0  0  0  0  0  0  0
    3.2803   -0.5165   -0.5066 C   0  0  0  0  0  0  0  0  0  0  0  0
   -2.7579   -1.9386    0.4268 C   0  0  0  0  0  0  0  0  0  0  0  0
    2.7581   -1.9358   -0.4262 C   0  0  0  0  0  0  0  0  0  0  0  0
   -0.6593   -3.1120    0.1019 C   0  0  0  0  0  0  0  0  0  0  0  0
    0.6605   -3.1114   -0.1022 C   0  0  0  0  0  0  0  0  0  0  0  0
   -6.4427    3.6644    1.1868 H   0  0  0  0  0  0  0  0  0  0  0  0
    6.4340    3.6680   -1.1834 H   0  0  0  0  0  0  0  0  0  0  0  0
   -7.0766    1.5938   -2.5066 H   0  0  0  0  0  0  0  0  0  0  0  0
    7.0698    1.5953    2.5086 H   0  0  0  0  0  0  0  0  0  0  0  0
   -7.3963    3.5854   -1.0870 H   0  0  0  0  0  0  0  0  0  0  0  0
    7.3841    3.5899    1.0920 H   0  0  0  0  0  0  0  0  0  0  0  0
   -5.4755    2.5357    3.0389 H   0  0  0  0  0  0  0  0  0  0  0  0
   -3.9260    1.9635    2.3978 H   0  0  0  0  0  0  0  0  0  0  0  0
   -5.1569    0.8081    2.9768 H   0  0  0  0  0  0  0  0  0  0  0  0
    5.4770    2.5353   -3.0394 H   0  0  0  0  0  0  0  0  0  0  0  0
    3.9267    1.9629   -2.4006 H   0  0  0  0  0  0  0  0  0  0  0  0
    5.1587    0.8078   -2.9779 H   0  0  0  0  0  0  0  0  0  0  0  0
   -6.4120   -0.6570   -2.7576 H   0  0  0  0  0  0  0  0  0  0  0  0
   -5.9688   -1.5990   -1.3390 H   0  0  0  0  0  0  0  0  0  0  0  0
   -4.7141   -0.7268   -2.2608 H   0  0  0  0  0  0  0  0  0  0  0  0
    6.4146   -0.6588    2.7550 H   0  0  0  0  0  0  0  0  0  0  0  0
    5.9750   -1.6005    1.3351 H   0  0  0  0  0  0  0  0  0  0  0  0
    4.7171   -0.7332    2.2573 H   0  0  0  0  0  0  0  0  0  0  0  0
   -3.0293   -0.0063   -0.4282 H   0  0  0  0  0  0  0  0  0  0  0  0
   -2.7762   -0.0111    1.3365 H   0  0  0  0  0  0  0  0  0  0  0  0
    3.0326   -0.0022    0.4304 H   0  0  0  0  0  0  0  0  0  0  0  0
    2.7792   -0.0065   -1.3366 H   0  0  0  0  0  0  0  0  0  0  0  0
   -0.9010   -1.0771    0.1400 H   0  0  0  0  0  0  0  0  0  0  0  0
    0.9015   -1.0740   -0.1390 H   0  0  0  0  0  0  0  0  0  0  0  0
   -1.2011   -4.0477    0.1854 H   0  0  0  0  0  0  0  0  0  0  0  0
    1.2038   -4.0461   -0.1864 H   0  0  0  0  0  0  0  0  0  0  0  0
  1  7  1  0  0  0  0
  1 23  1  0  0  0  0
  2  8  1  0  0  0  0
  2 24  1  0  0  0  0
  3 25  2  0  0  0  0
  4 26  2  0  0  0  0
  5 25  1  0  0  0  0
  5 27  1  0  0  0  0
  5 51  1  0  0  0  0
  6 26  1  0  0  0  0
  6 28  1  0  0  0  0
  6 52  1  0  0  0  0
  7  9  2  0  0  0  0
  7 11  1  0  0  0  0
  8 10  2  0  0  0  0
  8 12  1  0  0  0  0
  9 13  1  0  0  0  0
  9 19  1  0  0  0  0
 10 14  1  0  0  0  0
 10 20  1  0  0  0  0
 11 15  2  0  0  0  0
 11 21  1  0  0  0  0
 12 16  2  0  0  0  0
 12 22  1  0  0  0  0
 13 17  2  0  0  0  0
 13 29  1  0  0  0  0
 14 18  2  0  0  0  0
 14 30  1  0  0  0  0
 15 17  1  0  0  0  0
 15 31  1  0  0  0  0
 16 18  1  0  0  0  0
 16 32  1  0  0  0  0
 17 33  1  0  0  0  0
 18 34  1  0  0  0  0
 19 35  1  0  0  0  0
 19 36  1  0  0  0  0
 19 37  1  0  0  0  0
 20 38  1  0  0  0  0
 20 39  1  0  0  0  0
 20 40  1  0  0  0  0
 21 41  1  0  0  0  0
 21 42  1  0  0  0  0
 21 43  1  0  0  0  0
 22 44  1  0  0  0  0
 22 45  1  0  0  0  0
 22 46  1  0  0  0  0
 23 25  1  0  0  0  0
 23 47  1  0  0  0  0
 23 48  1  0  0  0  0
 24 26  1  0  0  0  0
 24 49  1  0  0  0  0
 24 50  1  0  0  0  0
 27 28  2  0  0  0  0
 27 53  1  0  0  0  0
 28 54  1  0  0  0  0
M  END
> <PUBCHEM_COMPOUND_CID>
76969209

> <PUBCHEM_CONFORMER_RMSD>
1

> <PUBCHEM_CONFORMER_DIVERSEORDER>
2
233
188
121
199
134
94
69
353
271
168
39
181
228
370
254
1
16
126
327
291
9
221
357
349
116
247
23
332
323
178
268
262
329
238
348
85
185
347
264
24
339
257
93
346
235
333
60
193
119
302
141
161
300
189
192
260
87
272
359
30
293
269
352
206
342
165
179
316
28
236
80
153
190
334
196
361
112
128
114
205
113
319
173
166
52
366
240
186
369
298
367
320
200
212
225
137
27
156
297
43
163
79
237
252
317
234
117
97
309
101
230
308
277
142
267
122
210
135
322
372
106
152
213
174
253
232
58
280
374
259
6
123
167
115
278
197
32
279
71
364
229
54
171
219
255
202
266
146
26
127
301
294
33
66
283
239
217
287
340
182
12
363
162
326
295
103
184
68
281
335
223
231
245
8
286
356
330
311
177
306
343
324
102
109
170
22
344
61
5
304
140
38
341
270
175
187
160
57
365
345
244
191
373
55
203
172
183
96
303
64
250
299
18
124
180
73
104
358
194
75
108
241
209
263
40
362
360
256
375
285
76
312
51
62
144
90
48
149
273
368
248
41
276
107
151
296
351
249
131
325
74
46
70
216
246
147
354
284
86
65
338
292
222
133
204
78
275
355
176
98
50
201
21
169
265
77
150
83
328
310
159
313
164
45
42
36
214
198
289
371
274
100
157
91
350
155
92
136
132
145
218
261
82
290
17
139
20
195
337
31
15
59
84
10
72
315
44
99
56
220
129
4
208
336
243
47
321
143
207
227
37
331
25
282
158
49
11
307
35
242
314
125
288
67
138
63
111
88
14
105
251
110
95
154
318
215
120
81
224
29
13
118
305
211
130
19
226
34
53
258
7
148
89
3

> <PUBCHEM_MMFF94_PARTIAL_CHARGES>
38
1 -0.36
10 -0.14
11 -0.14
12 -0.14
13 -0.15
14 -0.15
15 -0.15
16 -0.15
17 -0.15
18 -0.15
19 0.14
2 -0.36
20 0.14
21 0.14
22 0.14
23 0.34
24 0.34
25 0.57
26 0.57
27 -0.04
28 -0.04
29 0.15
3 -0.57
30 0.15
31 0.15
32 0.15
33 0.15
34 0.15
4 -0.57
5 -0.54
51 0.37
52 0.37
53 0.15
54 0.15
6 -0.54
7 0.08
8 0.08
9 -0.14

> <PUBCHEM_EFFECTIVE_ROTOR_COUNT>
10

> <PUBCHEM_PHARMACOPHORE_FEATURES>
8
1 1 acceptor
1 2 acceptor
1 3 acceptor
1 4 acceptor
1 5 donor
1 6 donor
6 7 9 11 13 15 17 rings
6 8 10 12 14 16 18 rings

> <PUBCHEM_HEAVY_ATOM_COUNT>
28

> <PUBCHEM_ATOM_DEF_STEREO_COUNT>
0

> <PUBCHEM_ATOM_UDEF_STEREO_COUNT>
0

> <PUBCHEM_BOND_DEF_STEREO_COUNT>
1

> <PUBCHEM_BOND_UDEF_STEREO_COUNT>
0

> <PUBCHEM_ISOTOPIC_ATOM_COUNT>
0

> <PUBCHEM_COMPONENT_COUNT>
1

> <PUBCHEM_CACTVS_TAUTO_COUNT>
3

> <PUBCHEM_CONFORMER_ID>
049674F900000002

> <PUBCHEM_MMFF94_ENERGY>
85.8108

> <PUBCHEM_FEATURE_SELFOVERLAP>
40.615

> <PUBCHEM_SHAPE_FINGERPRINT>
10883706 89 17604134936203847098
12422481 6 17530683221060506230
12661589 4 9799687087420957684
12975358 362 18189917343751058565
14904385 31 18260546714627276677
15183329 4 18411422829682831633
15803439 3 16630529557039164254
16096371 109 17750509577161036482
16989378 47 12607403282364731462
20058555 10 18411984658849716121
20398071 356 9151170956939780757
20691028 202 18338241453726149961
20715895 44 18411138052582418050
21033648 29 17676775254472357951
21599406 157 14764353716826911125
22033318 11 17748824142522120524
241686 156 18118128193131428772
24204213 265 17345192196027463462
2748736 6 18410852161593297957
2838139 119 18273213110001221166
328310 630 18272375235454891361
3504750 166 11314316045046327955
3610482 184 16342871915435464227
3862424 121 12966548942052524157
3918712 181 18343294873101957704
393628 179 17988629848764060280
4169191 19 18408885161098427668
44249763 50 17417238974535346630
474113 269 10953755434754579545
5219985 13 18412830196045061318
6712543 237 15285360617800905705
6898599 12 18201437017063547903

> <PUBCHEM_SHAPE_MULTIPOLES>
542.79
25.48
4.2
1.81
0.05
1.45
0
-24.5
0
0
0
0
-1.05
-0.75

> <PUBCHEM_SHAPE_SELFOVERLAP>
1134.975

> <PUBCHEM_SHAPE_VOLUME>
307.5

> <PUBCHEM_COORDINATE_TYPE>
2
5
10

$$$$
101369
  -OEChem-07172408123D

 25 25  0     0  0  0  0  0  0999 V2000
    0.7483    0.0107    0.5265 O   0  0  0  0  0  0  0  0  0  0  0  0
    3.9288   -0.0269   -1.1299 O   0  0  0  0  0  0  0  0  0  0  0  0
    3.4137    0.0214    1.0882 O   0  0  0  0  0  0  0  0  0  0  0  0
   -0.5852    0.0028    0.2404 C   0  0  0  0  0  0  0  0  0  0  0  0
   -1.2724    1.2072    0.0895 C   0  0  0  0  0  0  0  0  0  0  0  0
   -1.2617   -1.2087    0.0982 C   0  0  0  0  0  0  0  0  0  0  0  0
   -2.6362    1.2002   -0.2034 C   0  0  0  0  0  0  0  0  0  0  0  0
   -2.6255   -1.2158   -0.1948 C   0  0  0  0  0  0  0  0  0  0  0  0
   -3.3127   -0.0113   -0.3456 C   0  0  0  0  0  0  0  0  0  0  0  0
   -0.5662    2.5144    0.2388 C   0  0  0  0  0  0  0  0  0  0  0  0
   -0.5441   -2.5089    0.2550 C   0  0  0  0  0  0  0  0  0  0  0  0
    1.6471    0.0112   -0.5799 C   0  0  0  0  0  0  0  0  0  0  0  0
    3.0661    0.0037   -0.0831 C   0  0  0  0  0  0  0  0  0  0  0  0
   -3.1847    2.1304   -0.3258 H   0  0  0  0  0  0  0  0  0  0  0  0
   -3.1657   -2.1516   -0.3109 H   0  0  0  0  0  0  0  0  0  0  0  0
   -4.3743   -0.0168   -0.5749 H   0  0  0  0  0  0  0  0  0  0  0  0
    0.1433    2.4893    1.0726 H   0  0  0  0  0  0  0  0  0  0  0  0
   -0.0299    2.7633   -0.6820 H   0  0  0  0  0  0  0  0  0  0  0  0
   -1.2706    3.3262    0.4514 H   0  0  0  0  0  0  0  0  0  0  0  0
   -0.0073   -2.7593   -0.6651 H   0  0  0  0  0  0  0  0  0  0  0  0
    0.1668   -2.4719    1.0871 H   0  0  0  0  0  0  0  0  0  0  0  0
   -1.2412   -3.3252    0.4744 H   0  0  0  0  0  0  0  0  0  0  0  0
    1.4889   -0.8848   -1.1893 H   0  0  0  0  0  0  0  0  0  0  0  0
    1.4967    0.9123   -1.1832 H   0  0  0  0  0  0  0  0  0  0  0  0
    4.8640   -0.0329   -0.8334 H   0  0  0  0  0  0  0  0  0  0  0  0
  1  4  1  0  0  0  0
  1 12  1  0  0  0  0
  2 13  1  0  0  0  0
  2 25  1  0  0  0  0
  3 13  2  0  0  0  0
  4  5  2  0  0  0  0
  4  6  1  0  0  0  0
  5  7  1  0  0  0  0
  5 10  1  0  0  0  0
  6  8  2  0  0  0  0
  6 11  1  0  0  0  0
  7  9  2  0  0  0  0
  7 14  1  0  0  0  0
  8  9  1  0  0  0  0
  8 15  1  0  0  0  0
  9 16  1  0  0  0  0
 10 17  1  0  0  0  0
 10 18  1  0  0  0  0
 10 19  1  0  0  0  0
 11 20  1  0  0  0  0
 11 21  1  0  0  0  0
 11 22  1  0  0  0  0
 12 13  1  0  0  0  0
 12 23  1  0  0  0  0
 12 24  1  0  0  0  0
M  END
> <PUBCHEM_COMPOUND_CID>
101369

> <PUBCHEM_CONFORMER_RMSD>
0.6

> <PUBCHEM_CONFORMER_DIVERSEORDER>
1
8
7
3
2
6
5
4

> <PUBCHEM_MMFF94_PARTIAL_CHARGES>
17
1 -0.36
10 0.14
11 0.14
12 0.34
13 0.66
14 0.15
15 0.15
16 0.15
2 -0.65
25 0.5
3 -0.57
4 0.08
5 -0.14
6 -0.14
7 -0.15
8 -0.15
9 -0.15

> <PUBCHEM_EFFECTIVE_ROTOR_COUNT>
3

> <PUBCHEM_PHARMACOPHORE_FEATURES>
5
1 1 acceptor
1 2 acceptor
1 3 acceptor
3 2 3 13 anion
6 4 5 6 7 8 9 rings

> <PUBCHEM_HEAVY_ATOM_COUNT>
13

> <PUBCHEM_ATOM_DEF_STEREO_COUNT>
0

> <PUBCHEM_ATOM_UDEF_STEREO_COUNT>
0

> <PUBCHEM_BOND_DEF_STEREO_COUNT>
0

> <PUBCHEM_BOND_UDEF_STEREO_COUNT>
0

> <PUBCHEM_ISOTOPIC_ATOM_COUNT>
0

> <PUBCHEM_COMPONENT_COUNT>
1

> <PUBCHEM_CACTVS_TAUTO_COUNT>
1

> <PUBCHEM_CONFORMER_ID>
00018BF900000001

> <PUBCHEM_MMFF94_ENERGY>
36.3377

> <PUBCHEM_FEATURE_SELFOVERLAP>
25.434

> <PUBCHEM_SHAPE_FINGERPRINT>
11680986 33 17905887329544060195
12716758 59 18341333305760554826
13024252 1 15791453738307207281
14614273 12 18116425943389029565
14911166 2 18410564107507353549
14993402 34 18186238437403259045
15669948 3 18335982073026200886
15775835 57 17748830691671650060
16945 1 18410569591864092081
17846911 113 18411974741685690641
18186145 218 18131350769774017144
193761 8 17762334713353785601
20201158 50 17988927768779669206
20279233 1 17917991689882619886
20510252 161 18343302548097206432
20645476 183 17749677371291183934
20828058 34 18409732828691535535
20871998 184 18272374229995109927
23402539 116 18341881991932297108
23463225 33 18116143381585191282
23559900 14 18343299246105703172
2748010 2 17976527636045894735
43471831 8 18335135337256328139
6333449 129 18342454837601196297
7364860 26 17909825440339105378
77492 1 17676200265034288728
81228 2 18342188729970381608

> <PUBCHEM_SHAPE_MULTIPOLES>
249.93
5.57
2.11
0.82
4.96
0
-0.02
-0.01
-0.9
-1.29
0.25
0.51
0
0.01

> <PUBCHEM_SHAPE_SELFOVERLAP>
514.819

> <PUBCHEM_SHAPE_VOLUME>
144.5

> <PUBCHEM_COORDINATE_TYPE>
2
5
10

$$$$
